21
Energy: -664.9008019089459 Ha
C      -0.760165989398956      1.367116689682007      0.089301884174347
C       1.244195461273193      0.357206821441650     -0.432576745748520
C       2.454209089279175      0.329090803861618     -1.082597017288208
C       3.542346954345703     -0.301834464073181     -0.481229603290558
C       3.326521873474121     -1.057124853134155      0.697861015796661
C       2.002529144287109     -0.963181316852570      1.283972144126892
C      -1.818854928016663      0.297244012355804      0.028045620769262
C      -3.006380796432495      0.185629606246948      0.684465110301971
C      -3.596162796020508     -0.997693896293640      0.160789251327515
C      -2.559860229492188     -1.482674121856689     -0.629314422607422
H      -2.510867357254028     -2.435078144073486     -1.167337059974670
H      -4.480123043060303     -1.600417613983154      0.196509227156639
H      -3.303778648376465      0.831730186939240      1.490169286727905
H       2.554286956787109      0.986499190330505     -1.919311404228210
H       4.054887771606445     -1.657194614410400      1.199723839759827
H       4.489370822906494     -0.455137282609940     -1.075590491294861
H       1.695457220077515     -1.456136465072632      2.217800617218018
N       1.095378994941711     -0.261467218399048      0.689497292041779
O       0.231165871024132      1.090218901634216     -0.957736134529114
O      -0.551432967185974      2.192937612533569      0.899128019809723
O      -1.571877121925354     -0.631490468978882     -0.901485562324524
