23
Energy: -611.9707419455741 Ha
C      -4.013644218444824     -0.909519016742706      0.671944260597229
C      -1.683805704116821     -0.397247970104218     -0.108552359044552
C      -0.507014214992523     -1.080680370330811     -0.365563631057739
C       0.750188589096069     -0.476691722869873     -0.441924273967743
C       1.970651626586914     -1.369230389595032     -0.455749094486237
C       3.205841779708862     -1.045934200286865     -0.078479573130608
C       3.552628278732300      0.270642936229706      0.586303412914276
C       0.826448619365692      0.914758086204529     -0.706905245780945
C      -0.348345816135406      1.693135499954224     -0.517657041549683
C      -1.562923073768616      1.043017745018005     -0.133463308215141
H      -2.707639455795288      2.343149662017822     -0.523392677307129
H      -0.381201654672623      2.811464309692383     -0.471556633710861
H       1.877608537673950      1.325033903121948     -0.834667086601257
H       2.679377317428589      0.784064888954163      1.009576201438904
H       3.926593780517578     -1.788547754287720     -0.210994377732277
H      -4.497697830200195      0.127400666475296      0.531789898872375
H      -0.728596746921539     -2.023662805557251     -0.698137819766998
H      -4.546307086944580     -1.851850152015686      0.480956286191940
H      -3.948766946792603     -0.907106280326843      1.817759275436401
H       1.729585170745850     -2.456539392471313     -0.771144986152649
O       4.664895534515381      0.665701210498810      0.789311170578003
O      -2.778525352478027     -1.131624341011047      0.109714962542057
O      -2.704258918762207      1.688809156417847      0.222235515713692
