25
Energy: -667.2585233608805 Ha
C       1.163876771926880      2.716848611831665     -0.750117480754852
C       1.838198781013489      0.584000289440155      0.258006483316422
C       3.182169437408447      0.255176961421967      0.141944482922554
C       3.479568004608154     -1.047580718994141      0.038354553282261
C       2.568765878677368     -2.073511600494385     -0.016426449641585
C       1.260931253433228     -1.751724004745483      0.038250803947449
C       0.855103790760040     -0.395993620157242      0.081791661679745
C      -0.507405996322632     -0.072047024965286     -0.075530484318733
C      -1.546657085418701     -0.844167768955231     -0.545129120349884
C      -2.888764858245850     -0.273211658000946     -0.551577866077423
H      -2.218368053436279     -0.546013534069061      1.484946489334106
H      -4.199993610382080      0.693188309669495      0.474087029695511
H      -1.317616939544678     -1.842217683792114     -1.008565068244934
H      -0.906350374221802      0.961414039134979      0.144527211785316
H       0.436869621276855     -2.508209943771362      0.052238918840885
H       1.884214758872986      2.503404140472412     -1.531787037849426
H       4.476379394531250     -1.304404020309448     -0.026325311511755
H       3.942154884338379      1.093247771263123     -0.033798165619373
H       1.165725708007812      3.745781898498535     -0.519494593143463
H       0.233286082744598      2.362036228179932     -1.112416982650757
H       2.940588474273682     -3.125094413757324     -0.062958903610706
N      -3.195940256118774      0.608459591865540      0.505099713802338
O      -3.699661016464233     -0.551533401012421     -1.401733398437500
O       1.629514694213867      1.950849890708923      0.427424728870392
O      -2.992356538772583     -0.009202435612679      1.835114717483521
