26
Energy: -606.356928864644 Ha
C      -1.239342093467712      2.099501132965088     -0.243639692664146
C      -1.533010363578796      0.743624269962311      0.119156792759895
C      -2.921833753585815      0.539032459259033      0.231319740414619
C      -3.540540218353271     -0.644730806350708      0.356438279151917
C      -2.598608970642090     -1.813163042068481      0.125905990600586
C      -0.680305421352386     -0.495116353034973      0.005059615243226
C       1.262485384941101      0.968479156494141      0.232611328363419
C       2.504290819168091      0.616390764713287      1.055626153945923
C       3.001429080963135     -1.011196613311768     -0.665582716464996
C       1.567985415458679     -1.421932458877563     -0.421692073345184
H       1.606297373771667     -1.967080950737000      0.424870342016220
H       1.112839698791504     -2.274971961975098     -1.068042755126953
H       3.729460716247559     -1.995706796646118     -0.425319552421570
H       2.959223270416260     -0.713846385478973     -1.770287990570068
H       4.657678604125977     -0.061698198318481      0.525338411331177
H       2.122151851654053      0.191321447491646      1.990629434585571
H      -2.831610441207886     -2.957196474075317     -0.323835581541061
H       0.459614753723145      1.526144266128540      0.815186023712158
H       1.366035103797913      1.507861256599426     -0.667651772499084
H      -4.552249908447266     -0.826627433300018      0.430035889148712
H      -3.444990873336792      1.416276693344116      0.344361484050751
H       2.855839967727661      1.600809574127197      1.344023466110229
N       0.653408527374268     -0.351525336503983     -0.054351948201656
N      -0.679292142391205      3.014147758483887     -0.881582379341125
N      -1.280209422111511     -1.790694832801819     -0.190516829490662
N       3.452437400817871      0.137984454631805      0.213518559932709
