26
Energy: -606.4850280777646 Ha
C      -1.008064031600952      2.180628061294556     -0.276562780141830
C      -1.534711837768555      0.718740880489349     -0.171846941113472
C      -2.891522884368896      0.552218675613403      0.153937414288521
C      -3.439780950546265     -0.776726245880127      0.336588770151138
C      -2.568943023681641     -1.779832363128662      0.060042656958103
C      -0.699203848838806     -0.423009455204010     -0.070413306355476
C       1.355889081954956      0.948630928993225     -0.074584424495697
C       2.649143457412720      0.889360368251801      0.752788901329041
C       2.710535287857056     -1.129986405372620     -0.680069446563721
C       1.341863512992859     -1.561191797256470     -0.282119572162628
H       1.331734895706177     -2.140122652053833      0.585651338100433
H       0.761256992816925     -2.089895486831665     -1.046720862388611
H       3.413705348968506     -2.011364936828613     -0.896662175655365
H       2.755106210708618     -0.584533512592316     -1.644932270050049
H       3.409352540969849     -1.031669259071350      1.189038276672363
H       2.607936859130859      0.917276680469513      1.810327768325806
H      -2.942610502243042     -2.811816215515137      0.006783810909837
H       0.826992273330688      1.712126970291138      0.518801569938660
H       1.646871089935303      1.218909502029419     -1.069254636764526
H      -4.541755676269531     -0.819158852100372      0.435417473316193
H      -3.432754993438721      1.518215656280518      0.201053082942963
H       3.261474609375000      1.788564443588257      0.647503137588501
N       0.624504268169403     -0.297109186649323     -0.000299671635730
N      -0.596685588359833      3.236881017684937     -0.349198639392853
N      -1.219311356544495     -1.654691219329834      0.083171673119068
N       3.393130064010620     -0.339298844337463      0.377244621515274
