27
Energy: -681.5679795977654 Ha
C      -4.597487926483154     -1.871368527412415     -0.112066209316254
C      -3.260565280914307     -1.167930126190186     -0.463552892208099
C      -2.811557054519653     -0.135175704956055      0.541225194931030
C       0.632840514183044      1.108107924461365     -0.121742740273476
C       1.605889201164246      0.115809604525566     -0.214701190590858
C       2.893004417419434      0.400993824005127      0.168682992458344
C       3.866501808166504     -0.543970167636871      0.316109359264374
C       3.541293859481812     -1.923560976982117      0.127801880240440
C       2.261284351348877     -2.254590988159180     -0.180342853069305
C       1.312644958496094     -1.241540551185608     -0.297317743301392
H       0.311155915260315     -1.435386180877686     -0.624343216419220
H       1.809694051742554     -3.274024963378906     -0.346713364124298
H       4.485146045684814     -2.605558872222900     -0.165877178311348
H       4.831334114074707     -0.192558065056801      0.351748526096344
H       3.033164262771606      1.452794432640076      0.182105690240860
H      -3.237142801284790      0.866418957710266      0.205395430326462
H      -3.170377492904663     -0.772415339946747     -1.488496780395508
H      -2.522136926651001     -2.011761188507080     -0.403954148292542
H      -5.382115840911865     -1.209435224533081     -0.070604406297207
H      -4.843615055084229     -2.758987665176392     -0.805226564407349
H      -4.465343952178955     -2.309088230133057      0.888565897941589
H      -3.094512462615967     -0.339663773775101      1.596793413162231
N       0.850199520587921      2.425772428512573     -0.413299560546875
N      -0.650034666061401      0.986315608024597      0.171859264373779
N      -1.270817756652832      2.206965446472168      0.110846489667892
N      -0.371691137552261      3.013271093368530     -0.265323370695114
O      -1.290241837501526     -0.094656288623810      0.608431518077850
