28
Energy: -607.7122032965239 Ha
C       0.737619400024414      1.432023167610168      1.878502249717712
C      -1.645780920982361      0.468568414449692     -0.531183719635010
C      -1.679736018180847     -1.543163418769836      0.526344239711761
C       0.541671216487885     -0.554236888885498      0.219120413064957
C       1.171876192092896     -1.546796560287476     -0.522287249565125
C      -3.074350118637085     -0.839928746223450      0.615729451179504
C       3.297198534011841     -0.411673396825790     -0.303072661161423
C       2.687474489212036      0.582708120346069      0.499921619892120
C       1.317950606346130      0.453199893236160      0.832958936691284
C       2.556142568588257     -1.459252715110779     -0.818978309631348
H      -1.693671822547913     -2.227315425872803     -0.342344105243683
H       0.204753398895264      2.436221837997437     -1.960161924362183
H       0.618331909179688      0.951328098773956     -1.331512808799744
H      -3.665238142013550      0.875643372535706     -0.576836228370667
H      -3.328569889068604     -0.459102421998978      1.610101461410522
H      -3.811180353164673     -1.577543735504150      0.390968739986420
H      -1.555399179458618     -2.052204132080078      1.464071989059448
H       3.284644365310669      1.366834998130798      0.897008240222931
H       3.050956010818481     -2.337842941284180     -1.241498947143555
H       4.357504367828369     -0.245597153902054     -0.653239667415619
H       0.014566819183528      2.161715984344482      1.402825713157654
H       0.217690944671631      0.853984355926514      2.663935661315918
H       1.583039879798889      1.979587554931641      2.340672731399536
H       0.608097970485687     -2.387415409088135     -0.891096115112305
N      -1.293468952178955      1.472948431968689     -1.230810761451721
N      -0.853191077709198     -0.385368108749390      0.255645632743835
N      -2.979933261871338      0.145560637116432     -0.411702901124954
N       0.077175632119179      1.791575908660889     -1.206735491752625
