28
Energy: -607.7043518071323 Ha
C       1.173654079437256     -0.516042530536652      2.148538827896118
C      -1.124819755554199     -0.381755113601685     -0.999851942062378
C      -3.351484060287476     -0.262541204690933      0.519017338752747
C      -2.425699710845947      0.802287697792053      0.596076309680939
C      -1.364491462707520      0.787529289722443     -0.323566287755966
C      -3.040494441986084     -1.368436098098755     -0.274304449558258
C       1.563520550727844      0.695844113826752      0.033141940832138
C       2.918108701705933     -0.726430535316467     -1.001204490661621
C       2.429087638854980     -1.460990190505981      0.221535786986351
C       0.692516624927521      1.948777675628662      0.273438751697540
H       0.421337127685547      2.201842069625854      1.288064837455750
H      -0.332724332809448     -0.295345425605774     -1.705704689025879
H      -3.790829181671143     -2.140712261199951     -0.344715535640717
H      -4.210717201232910     -0.325820505619049      1.134963631629944
H      -2.604493856430054      1.711859226226807      1.194375038146973
H      -1.030632019042969      2.767250299453735     -0.692082226276398
H       1.244858026504517      2.726548433303833     -0.169868141412735
H       1.786298036575317     -2.377147912979126      0.064369007945061
H       2.765621185302734     -1.123193621635437     -2.024408578872681
H       3.219227552413940     -1.695072412490845      0.861998140811920
H       0.547766089439392      0.370090037584305      2.436810493469238
H       2.072028875350952     -0.489622324705124      2.718333959579468
H       0.679789304733276     -1.428707361221313      2.418318271636963
H       4.031613826751709     -0.721176385879517     -1.089211463928223
N      -0.484077423810959      1.861326098442078     -0.626947939395905
N       1.510772705078125     -0.475434720516205      0.754962444305420
N       2.398039817810059      0.623139560222626     -1.042759895324707
N      -1.941668391227722     -1.479066848754883     -0.977850914001465
