28
Energy: -648.5497478299757 Ha
C       2.450397729873657      1.970444917678833      0.888985991477966
C      -3.430102586746216      0.230210080742836     -0.194200783967972
C      -0.707819163799286     -0.760560512542725      1.409446835517883
C      -1.561279416084290     -0.867557108402252      0.319151014089584
C      -0.958370268344879     -1.318927049636841     -0.774554431438446
C       0.700611293315887     -0.878313064575195      1.347175121307373
C       1.277219414710999     -1.099599361419678      0.094427563250065
C       3.267340183258057     -0.036586795002222     -0.682214260101318
C       2.515750885009766      1.241755247116089     -0.514136314392090
C       0.399881809949875     -1.446540355682373     -0.979629993438721
H      -1.725964903831482     -1.489906311035156     -1.608163952827454
H      -1.470064401626587      1.661014676094055      0.491895645856857
H      -3.381274223327637      2.315337419509888     -0.850671827793121
H      -4.546700477600098      0.311350733041763     -0.411425083875656
H       1.192835569381714     -0.734486043453217      2.368222236633301
H      -1.207290649414062     -0.424247443675995      2.358007907867432
H       0.690409839153290     -1.498582720756531     -1.987535238265991
H       1.483767867088318      1.379045128822327     -1.012958765029907
H       4.325951099395752     -0.038924675434828     -0.326457679271698
H       3.212766170501709      1.759955763816833     -1.162408709526062
H       1.673433303833008      1.528644800186157      1.465266227722168
H       2.236110210418701      3.029753684997559      0.655138611793518
H       3.285706996917725      1.993733525276184      1.552119970321655
H       3.513234376907349     -0.223391339182854     -1.753156304359436
N      -3.011769056320190     -0.815002620220184      0.370112925767899
N      -2.924234867095947      1.526715040206909     -0.383819371461868
O       2.600748538970947     -1.170140743255615     -0.152242273092270
O      -1.532332658767700      1.575485825538635     -0.493836790323257
