30
Energy: -649.9388399486915 Ha
C      -3.111127853393555      0.159567251801491     -0.061422545462847
C       0.781536996364594     -1.227868199348450     -0.937607109546661
C       1.725098967552185     -1.597702383995056      0.976333916187286
C       3.008487224578857     -0.136658355593681     -0.594682037830353
C       2.953372478485107      1.324999570846558     -0.081892147660255
C       0.476345986127853     -2.197268724441528      0.888201057910919
C       0.464634329080582      1.716609835624695      0.701888859272003
C      -0.816597700119019      1.414694309234619     -0.100836068391800
C      -1.951398611068726      0.754699170589447      0.726499557495117
C       1.626711368560791      2.096497535705566     -0.246757999062538
H       3.253085613250732      1.379726886749268      1.003421902656555
H       0.711702942848206     -0.797199130058289     -1.931661963462830
H       0.058930702507496     -2.797418832778931      1.692588806152344
H       2.523820161819458     -1.537468910217285      1.677780508995056
H       3.944606542587280     -0.603545784950256     -0.133412152528763
H       3.049222469329834     -0.171332597732544     -1.666100025177002
H       3.771282196044922      1.853967189788818     -0.622218549251556
H       1.917945146560669      3.171318054199219     -0.145134523510933
H      -0.509566307067871      0.786864161491394     -0.966424226760864
H       0.674586057662964      0.902648806571960      1.399900674819946
H       0.267216920852661      2.569470643997192      1.361179351806641
H      -1.163801670074463      2.419883966445923     -0.495780855417252
H      -1.472405552864075     -0.043163243681192      1.381902694702148
H      -2.324350595474243      1.550500392913818      1.356507897377014
H      -1.978993415832520     -1.276231765747070     -0.571634590625763
H       1.279412150382996      1.975110054016113     -1.254553675651550
N       1.867174506187439     -0.958145976066589     -0.198223456740379
N      -0.164331555366516     -1.936833024024963     -0.347902357578278
O      -2.946232080459595     -1.091601848602295     -0.590382277965546
O      -4.161889553070068      0.721139729022980     -0.144846916198730
