30
Energy: -608.8689614271657 Ha
C       1.772918343544006      1.271696567535400      1.587085485458374
C       1.400658488273621      0.385040044784546     -1.205119729042053
C      -0.929031789302826      1.189744830131531     -0.497187197208405
C      -2.505617856979370     -0.279748737812042      0.143764108419418
C      -0.457046210765839     -1.046235680580139     -0.323088318109512
C       0.049862176179886      0.141221314668655     -0.594897806644440
C       1.894697666168213     -1.695150136947632      0.217015206813812
C       2.401867866516113     -0.372431486845016     -0.313880175352097
C       2.871086120605469      0.596094191074371      0.811348319053650
C       0.584840834140778     -2.308854103088379     -0.460730493068695
H       1.014782786369324     -2.444145441055298     -1.572302341461182
H       1.602511167526245      1.455572366714478     -1.328387856483459
H       1.279049277305603      0.116778172552586     -2.323358774185181
H       0.451009184122086      2.475710391998291     -0.408365398645401
H      -0.842765927314758      3.407080173492432     -0.166618466377258
H      -3.883581161499023     -1.509682536125183      0.754582703113556
H      -4.237502098083496      0.144029363989830      0.502357006072998
H       0.276307076215744     -3.354513406753540     -0.137325182557106
H       3.509618759155273      1.361313700675964      0.450470894575119
H       2.750050544738770     -2.418271780014038      0.431008815765381
H       3.260624885559082     -0.632833063602448     -0.934103429317474
H       3.581896543502808     -0.174381554126740      1.345913529396057
H       1.066633343696594      1.726377487182617      0.695017278194427
H       1.169646263122559      0.670328497886658      2.231021165847778
H       2.388615608215332      2.060662269592285      2.186697006225586
H       1.396584153175354     -1.747088313102722      1.217523455619812
N      -2.289198398590088      0.965708255767822     -0.187086850404739
N      -1.677153110504150     -1.304961681365967      0.090449005365372
N      -3.663875341415405     -0.458627671003342      1.030557274818420
N      -0.553900718688965      2.451424360275269     -0.809631884098053
