32
Energy: -691.871304917627 Ha
C       3.153247117996216     -0.105056837201118     -0.695386826992035
C      -2.866946935653687      0.873394131660461      0.339652895927429
C      -2.019074916839600      1.678597092628479     -0.688633501529694
C       1.970075845718384     -0.644569158554077     -1.573324799537659
C       0.838609099388123     -1.313559412956238     -0.867954730987549
C      -3.106532573699951     -0.618518233299255      0.073755159974098
C       1.063630461692810     -0.439813166856766      1.617297530174255
C       2.113179445266724      0.703106641769409      1.567912697792053
C       2.810258150100708      1.094087123870850      0.169796705245972
C       0.187144190073013     -0.530417799949646      0.349501967430115
H       2.437032461166382     -1.371346712112427     -2.280513048171997
H      -3.750862598419189     -1.061475276947021      0.899374425411224
H      -3.764665842056274     -0.741712987422943     -0.800240039825439
H      -2.484085559844971      1.039937376976013      1.337846159934998
H      -3.869793415069580      1.280848145484924      0.427238553762436
H      -2.619884014129639      1.906031727790833     -1.581114649772644
H      -1.729911684989929      2.630508661270142     -0.242687493562698
H       1.681589126586914      0.245201691985130     -2.138405799865723
H       1.174054861068726     -2.181719541549683     -0.310563445091248
H       2.991144657135010      0.329499810934067      2.218849182128906
H       1.506247282028198     -1.486716985702515      1.629151463508606
H       0.365365862846375     -0.321499139070511      2.476141929626465
H       1.687549233436584      1.544162154197693      2.071632862091064
H       3.615638971328735      1.793727397918701      0.391176939010620
H       2.165116071701050      1.760909557342529     -0.454522818326950
H       3.894986629486084      0.165064960718155     -1.465395331382751
H       3.486284732818604     -0.989074826240540     -0.139106228947639
H       0.012268366292119     -1.715974330902100     -1.502828598022461
O      -1.941349864006042     -1.417658090591431     -0.185516223311424
O      -0.167627915740013      0.797880351543427      0.130544856190681
O      -0.905495822429657      0.997937679290771     -1.100924968719482
O      -0.942978382110596     -1.254394173622131      0.869429290294647
