33
Energy: -983.6716676258037 Ha
C      -2.087001085281372     -0.325141668319702      1.000002861022949
C       5.057469367980957      0.211666673421860     -0.404030591249466
C       3.345888137817383     -0.841088771820068      0.155347958207130
C       1.953323602676392     -1.358998656272888     -0.037740126252174
C       1.038978576660156      1.015080094337463     -0.660637199878693
C       3.944711923599243     -0.460744023323059      1.324128150939941
C      -4.355038166046143      0.336392194032669      0.150886729359627
C      -3.559618473052979     -0.387778818607330      1.265692710876465
C      -1.727099537849426     -1.004302024841309     -0.388007432222366
C       0.747755885124207     -0.398318022489548      0.014807042665780
H       1.687731146812439     -2.166230678558350      0.638053953647614
H       1.955007910728455      2.593173027038574     -0.310358643531799
H       5.800925254821777      0.641389906406403      1.464565634727478
H       5.903186321258545      0.473537474870682     -0.984704554080963
H       3.635518312454224     -0.589560627937317      2.427233457565308
H       1.937801837921143     -1.796036243438721     -1.011053562164307
H       0.415297210216522     -0.111632101237774      1.022106170654297
H      -0.260521709918976     -1.180238962173462     -1.641641020774841
H      -5.894829273223877      0.262995898723602     -0.733612954616547
H      -3.858973503112793     -1.470096349716187      1.244725942611694
H      -3.953155755996704      0.095534734427929      2.169617176055908
H      -1.517808318138123     -0.959166526794434      1.688138365745544
H      -2.080993413925171      1.667516827583313      0.365946531295776
H      -1.411594390869141      1.356274127960205      1.960587620735168
N      -1.574787974357605      1.017661213874817      1.018869042396545
N      -0.405340701341629     -0.925359547138214     -0.673572242259979
N       4.000818252563477     -0.326856017112732     -0.921106696128845
N       5.083375453948975      0.150903731584549      0.950107216835022
O      -2.498258352279663     -1.546106338500977     -1.105297088623047
O      -4.077480792999268      1.383844256401062     -0.382707655429840
O      -5.502907752990723     -0.290500044822693     -0.065530307590961
O       0.850355803966522      1.149060606956482     -1.828535318374634
O       1.448008060455322      1.934637904167175      0.201772108674049
