35
Energy: -876.6440799136833 Ha
C       1.867256164550781     -1.536908864974976     -0.035505566745996
C      -2.838032484054565     -0.385708421468735      1.358645439147949
C      -3.568778276443481     -0.640346050262451     -1.052122712135315
C      -2.776180982589722      0.243295893073082     -0.006696626543999
C      -0.718202352523804      1.896809339523315     -0.210126698017120
C      -2.480669021606445     -1.815202832221985      1.709123611450195
C       2.782885551452637      0.699512124061584      0.601722955703735
C       3.073338747024536     -0.538970649242401     -0.207602605223656
C       0.662299752235413     -0.791767299175262     -0.741101622581482
C      -1.377155780792236      0.475642472505569     -0.507434427738190
H      -4.757219314575195     -0.683665692806244     -1.289485335350037
H      -1.130908250808716      3.680475473403931     -0.965096831321716
H      -1.634487032890320     -1.821443796157837      2.400911092758179
H      -3.326847314834595     -2.190088033676147      2.263527631759644
H      -2.245569467544556     -2.498612642288208      0.826270222663879
H      -3.886008739471436     -0.316177815198898      1.631358742713928
H      -2.272811174392700      0.226548194885254      2.087482452392578
H      -3.259980440139771     -0.259856849908829     -2.041419506072998
H      -3.219138145446777     -1.664391398429871     -0.883133292198181
H      -1.375029683113098      0.379919767379761     -1.628157615661621
H      -0.340126663446426     -0.421892017126083      1.102123379707336
H       1.416006445884705      1.044301629066467      1.996161103248596
H       4.013240814208984     -1.012561440467834      0.090025983750820
H       3.207455158233643     -0.123198598623276     -1.201005101203918
H       1.757993578910828     -1.705104231834412      1.042361736297607
H       1.111343383789062     -3.236426353454590     -0.735934793949127
H       2.222297191619873     -2.650086402893066     -1.843313694000244
H      -3.324779510498047      1.190773725509644     -0.071654178202152
N       1.988734602928162     -2.792362928390503     -0.729772567749023
N      -0.419342517852783     -0.535568654537201      0.075759187340736
O       0.138447180390358      2.077093362808228      0.608726680278778
O       0.639760553836823     -0.676563441753387     -1.956465840339661
O       3.257400274276733      1.756969094276428      0.390691190958023
O       1.997019648551941      0.329222232103348      1.611264467239380
O      -1.245345234870911      2.728138208389282     -1.111258983612061
