35
Energy: -1025.836593306535 Ha
C      -2.104413747787476      1.186651229858398      0.061222922056913
C       4.179083347320557     -0.498396247625351     -0.512895762920380
C       1.770472168922424     -0.589650452136993     -0.954374670982361
C       0.963959872722626     -0.037709686905146      1.357655525207520
C       0.628385722637177      0.022693965584040     -0.098538085818291
C       3.021769046783447      0.205471932888031     -1.163772106170654
C      -3.639065027236938     -0.659022808074951     -0.639056384563446
C      -2.690513610839844      0.407971978187561     -1.077981829643250
C      -0.890199184417725      2.061495780944824     -0.383660972118378
C      -3.050548076629639     -1.987581968307495     -0.246548473834991
H      -0.286466836929321     -0.630605399608612     -0.230702802538872
H      -0.662204325199127     -0.941128313541412      1.503237605094910
H       3.670651674270630      0.115687638521194      1.321880936622620
H       3.359014987945557      0.108140431344509     -2.185360908508301
H       2.925054788589478      1.249953389167786     -0.878693282604218
H       1.953853845596313     -1.498571991920471     -0.453429430723190
H       1.370898723602295     -0.884676098823547     -1.932573914527893
H       0.983895242214203      1.954211592674255     -1.016187787055969
H      -1.518843531608582     -2.736872434616089      0.712151646614075
H      -4.143365383148193     -0.268783777952194      0.251205712556839
H      -4.335006713867188     -0.974395036697388     -1.366651058197021
H      -3.237699031829834      1.125846624374390     -1.629437446594238
H      -1.923662304878235      0.065658181905746     -1.827314496040344
H      -1.685056805610657      0.472224026918411      0.790524303913116
H      -3.255584001541138      1.633801102638245      1.632109284400940
H      -2.779798507690430      2.915756940841675      0.840923845767975
N      -3.199977159500122      2.019215345382690      0.687102377414703
N       0.239289149641991      1.384267330169678     -0.605382680892944
O      -0.935533344745636      3.264907360076904     -0.495764940977097
O      -3.521767616271973     -3.069763422012329     -0.449412375688553
O      -1.910829424858093     -1.851184844970703      0.481098562479019
O       1.986717104911804      0.327033728361130      1.923565745353699
O       4.994503021240234     -1.133011579513550     -1.123844981193542
O       4.465788841247559     -0.127657264471054      0.755295157432556
O       0.065565422177315     -0.685594975948334      2.139560222625732
