36
Energy: -856.78174050837 Ha
C       1.743301749229431     -1.420676827430725      0.003353430423886
C      -2.336511611938477      3.250848293304443      0.210670754313469
C      -1.750201582908630      1.784973621368408     -0.076000504195690
C      -2.104162693023682      0.769341707229614      0.977786660194397
C      -2.751181602478027     -1.270864009857178     -0.472405403852463
C      -0.283615499734879      1.769889593124390     -0.546393334865570
C       3.371375083923340      0.564835309982300     -0.088294491171837
C       2.968105554580688     -0.622843265533447      0.650108397006989
C       0.550154149532318     -1.148640751838684      0.920040130615234
C      -1.874926805496216     -0.684187829494476      0.664107859134674
H      -2.233304262161255      1.447666883468628     -0.985066235065460
H      -4.161078929901123     -0.528646349906921     -1.701284766197205
H      -0.050282325595617      2.653036832809448     -1.037585258483887
H       0.486921697854996      1.547682046890259      0.085748285055161
H      -0.144481465220451      1.034317731857300     -1.354026317596436
H      -3.421348094940186      3.187114477157593      0.325118511915207
H      -2.105706691741943      4.030330657958984     -0.537566661834717
H      -1.953228473663330      3.679123401641846      1.091549515724182
H      -1.462088227272034      1.077401280403137      1.792783856391907
H      -0.401231974363327     -1.308297634124756     -0.834296047687531
H      -1.978708386421204     -1.286114931106567      1.610569238662720
H       4.985114574432373      1.475425124168396     -0.968640148639679
H       5.298028945922852     -0.059956137090921     -0.429099172353745
H       3.700018644332886     -1.349900841712952      0.428512513637543
H       2.919756412506104     -0.440886557102203      1.704010725021362
H       1.892828226089478     -2.540881156921387      0.048089995980263
H       1.441432833671570     -0.226324588060379     -1.546505808830261
H       2.381711006164551     -1.448067545890808     -1.984073281288147
H      -3.124532699584961      1.098523139953613      1.257712364196777
N       1.506409406661987     -1.186864614486694     -1.486761331558228
N       4.645117759704590      0.629077970981598     -0.557226061820984
N      -0.522644937038422     -1.017981529235840      0.163657560944557
O      -2.741054296493530     -2.446698665618896     -0.752988338470459
O       0.573689162731171     -1.017316818237305      2.145197153091431
O       2.625464677810669      1.482434988021851     -0.274184018373489
O      -3.791351556777954     -0.389322340488434     -0.775710284709930
