36
Energy: -1005.8887283059079 Ha
C      -1.319980025291443     -0.241886824369431      1.393996596336365
C       3.210379123687744     -2.118989944458008     -0.147188737988472
C       1.711433053016663     -0.218365460634232     -0.274394035339355
C       2.211289167404175      2.205250501632690     -0.593088328838348
C       1.537175893783569      1.219204425811768      0.358370065689087
C       2.950925588607788     -0.725610911846161      0.298654705286026
C      -2.496270656585693     -1.170234799385071     -0.995629549026489
C      -1.684490323066711     -1.398666381835938      0.396232247352600
C      -1.074348211288452      1.106839776039124      0.624155104160309
C      -3.945039510726929     -0.715699493885040     -0.803451955318451
H       1.989143133163452      1.314212203025818      1.352810144424438
H       3.647362232208252      2.486358404159546      0.828328013420105
H       4.184157371520996     -3.443313360214233      0.485637605190277
H       3.678034305572510     -0.064508974552155     -0.018355080857873
H       2.915755987167358     -0.583299219608307      1.411747097969055
H       1.996794462203979     -0.159959688782692     -1.343234062194824
H       0.817967116832733     -0.921368837356567     -0.207835540175438
H      -0.049541309475899      2.539278507232666     -0.170575141906738
H      -3.390088319778442      0.973492026329041      0.116778090596199
H      -1.857366681098938     -0.491859495639801     -1.564149737358093
H      -2.504551410675049     -2.209814548492432     -1.441700100898743
H      -2.444962739944458     -1.943309545516968      0.832186996936798
H      -0.811736106872559     -2.094064474105835      0.220340773463249
H      -0.418545693159103     -0.576979279518127      1.918388485908508
H      -2.369781255722046     -0.937019765377045      3.043622016906738
H      -2.191480875015259      0.849666595458984      2.808614730834961
H      -5.138380050659180      0.780860662460327     -0.435753434896469
N      -2.395081520080566     -0.128792673349380      2.351400613784790
N      -4.262582302093506      0.430397242307663     -0.185963705182076
N       0.100280284881592      1.609493494033813      0.249442189931870
O       2.667481422424316     -2.827497720718384     -0.976841926574707
O       1.690023303031921      2.652245283126831     -1.527820944786072
O       4.283956050872803     -2.482924699783325      0.555058062076569
O      -2.108897686004639      1.701630949974060      0.332185804843903
O      -4.800193309783936     -1.239106535911560     -1.468617439270020
O       3.422937154769897      2.627264738082886     -0.199831068515778
