38
Energy: -912.0460012246921 Ha
C       1.226232647895813     -1.198518633842468      0.044315010309219
C      -2.807454586029053      1.251005172729492     -0.397910177707672
C      -3.618073225021362     -1.056571125984192     -0.087376572191715
C      -2.445177555084229     -0.114493168890476      0.170391112565994
C       4.858110904693604     -0.600031614303589     -0.224296882748604
C      -1.823711156845093      2.308153629302979     -0.069993779063225
C       2.924217700958252      0.619712173938751      0.896982073783875
C       2.049323797225952      0.026542022824287     -0.274204641580582
C      -0.116393446922302     -0.772286891937256      0.447380453348160
C       4.351346969604492      0.096444018185139      1.073221325874329
H       4.784085750579834     -0.085182160139084     -2.251712322235107
H      -4.377079963684082     -2.563723087310791      0.626302957534790
H      -0.443878442049026      2.888138532638550      1.174636244773865
H      -0.649354279041290      1.284098982810974      1.214065551757812
H      -3.843747377395630      1.621916413307190     -0.281801104545593
H      -2.831183195114136      1.078816771507263     -1.528248190879822
H      -2.296999692916870      0.005407419055700      1.170235753059387
H      -0.898522853851318     -0.791371703147888     -1.359865307807922
H       5.358022689819336      1.181899428367615     -1.234516143798828
H       5.915830612182617     -0.938180267810822     -0.117222607135773
H       4.990338325500488      0.989851772785187      1.072396755218506
H       1.700561046600342     -2.853490829467773     -0.979891180992126
H       4.562057495117188     -0.527048408985138      1.962004184722900
H       2.315267801284790      0.564177036285400      1.794877052307129
H       3.072267532348633      1.666747331619263      0.559628307819366
H       1.421920537948608      0.836151361465454     -0.760250329971313
H       2.667765378952026     -0.370168566703796     -1.001532316207886
H       1.681102752685547     -1.956552743911743      0.670129299163818
H       1.084363937377930     -1.528586268424988     -1.879220485687256
H       4.238556385040283     -1.465529441833496     -0.633529365062714
N       1.011873722076416     -2.087803125381470     -1.084378361701965
N       4.688843250274658      0.476625502109528     -1.333181738853455
N      -1.196876883506775     -0.682500600814819     -0.325109124183655
N      -1.081066966056824      2.139451980590820      1.032834649085999
O      -4.617475986480713     -0.928792655467987     -0.822788059711456
O      -1.766763925552368      3.212280511856079     -0.974615454673767
O      -0.065437436103821     -0.326646953821182      1.610968589782715
O      -3.550487279891968     -2.121531248092651      0.721598327159882
