39
Energy: -896.0847028960261 Ha
C       2.390762090682983     -0.504350781440735      0.511999905109406
C      -2.111969470977783      0.914438903331757     -0.411764770746231
C      -2.214159250259399     -0.134711518883705      0.749596178531647
C      -1.784678697586060     -2.225831270217896     -0.515863835811615
C      -1.334625601768494     -1.380140423774719      0.623777389526367
C      -3.179683446884155      2.011447429656982     -0.156936585903168
C       3.849749088287354      0.757979512214661     -1.222518801689148
C       2.420422554016113      2.041716337203979      0.548144102096558
C       2.554354190826416      0.784001350402832     -0.388761729001999
C       0.987910211086273     -0.585551023483276      1.035093426704407
C       5.092432498931885      0.789812862873077     -0.370392680168152
H       0.188238590955734     -1.427100539207458     -0.651666879653931
H      -3.307362318038940     -2.838420152664185      0.535808026790619
H      -2.456990480422974      3.025840759277344     -1.787001371383667
H      -3.937367439270020      3.665921449661255     -1.040797472000122
H      -1.080358266830444      1.327525258064270     -0.499808251857758
H      -2.281375646591187      0.351257562637329     -1.397327780723572
H      -3.244459629058838     -0.468681931495667      0.801992952823639
H      -2.028325319290161      0.352144122123718      1.683734297752380
H      -1.424276351928711     -1.857835412025452      1.652417898178101
H       4.999076843261719      1.786502718925476      0.237310200929642
H       3.831288576126099     -0.153409689664841     -1.846985340118408
H       6.022296905517578      0.852473199367523     -0.913078844547272
H       2.329504251480103     -1.852862715721130     -0.954506933689117
H       5.207728385925293     -0.005463413428515      0.330287873744965
H       3.036241054534912     -0.213276177644730      1.340040206909180
H       1.837023377418518      0.840767741203308     -1.203684449195862
H       2.682003498077393     -2.532206058502197      0.426770746707916
H       3.049086332321167      1.952015876770020      1.374332547187805
H       1.393125891685486      2.228986024856567      0.872903108596802
H       3.872023582458496      1.604749083518982     -1.910140275955200
H       2.729322671890259      2.915997028350830      0.057496108114719
N       2.861923217773438     -1.729323625564575     -0.127209976315498
N       0.034573297947645     -1.122352719306946      0.282603472471237
N      -3.146786212921143      2.998250722885132     -1.092645645141602
O      -3.954182624816895      1.948328256607056      0.769419550895691
O       0.703004062175751     -0.101587861776352      2.101807594299316
O      -1.257453322410583     -2.188518762588501     -1.625567555427551
O      -2.952305793762207     -2.832448482513428     -0.365855425596237
