40
Energy: -1021.5046999021555 Ha
C      -2.537781476974487     -1.667346596717834      0.774287343025208
C       3.046393394470215      1.420605778694153      0.497622132301331
C       1.610048890113831      1.590126156806946     -0.033729627728462
C       0.567547261714935      1.733501434326172      1.001964092254639
C      -1.017665266990662      2.740749597549438     -0.679334461688995
C       3.168824195861816     -0.956692814826965      0.211977809667587
C      -0.720405697822571     -2.109182596206665     -1.120240449905396
C      -1.357346773147583     -2.511651754379272      0.152045145630836
C      -1.921844482421875     -0.356073796749115      1.340309143066406
C      -0.953653693199158      1.804763793945312      0.595466494560242
H       1.596339344978333      2.446079254150391     -0.718650817871094
H      -1.308105826377869      2.744486570358276     -2.402694225311279
H       4.461858749389648     -0.354999840259552     -1.332689166069031
H       3.761205434799194     -1.877371907234192     -1.398854017257690
H       2.212383747100830     -2.015621423721313      1.605007290840149
H       3.033423662185669     -0.075235575437546      1.835777640342712
H       3.778294801712036      1.799291729927063     -0.253519862890244
H       3.351929187774658      2.037590742111206      1.300459146499634
H       1.510036706924438      0.708799779415131     -0.695702135562897
H       0.739830076694489      2.639643669128418      1.643950819969177
H       0.687191128730774      0.872850835323334      1.737724781036377
H      -1.426773071289062      2.122432708740234      1.472748756408691
H      -1.561321377754211      0.148751214146614     -0.595071971416473
H       1.090402960777283     -2.607061862945557     -0.319858789443970
H       1.149972558021545     -1.969355940818787     -1.808292388916016
H      -0.562361657619476     -2.668431520462036      0.938634872436523
H      -1.891407012939453     -3.444198131561279      0.040935646742582
H      -3.022794008255005     -2.248578548431396      1.568590879440308
H      -3.505431652069092     -0.875984907150269     -1.000194668769836
H      -4.462980747222900     -0.844060480594635      0.433899104595184
N       3.594134092330933     -0.866220176219940     -1.129275798797607
N       2.708007097244263     -2.082577466964722      0.682070076465607
N       3.322879314422607      0.147445887327194      0.954867362976074
N      -3.696846008300781     -1.274947404861450     -0.102841325104237
N       0.601656854152679     -2.512514829635620     -1.228927969932556
N      -1.575551748275757      0.553517460823059      0.361298561096191
O      -1.090069890022278      3.960723400115967     -0.788331091403961
O      -1.764845013618469     -0.069404892623425      2.531011343002319
O      -1.383441805839539     -1.420094490051270     -1.909281015396118
O      -1.213686704635620      1.975682616233826     -1.740242004394531
