42
Energy: -728.2195238448377 Ha
C      -1.906138181686401     -2.057909965515137      1.687251806259155
C      -2.426172018051147     -0.783017635345459      1.010213613510132
C      -2.630800962448120      0.468371927738190     -1.021257519721985
C      -1.779898524284363      1.657993078231812     -0.828099071979523
C      -0.372704684734344      1.516686677932739     -1.377324819564819
C       0.837870776653290      2.956237077713013      0.335651159286499
C       1.303922414779663      1.742384910583496      1.115145087242126
C       2.546863317489624      1.153895735740662      0.511788308620453
C       2.110599994659424     -1.354241967201233      0.797825455665588
C       2.450113773345947     -1.851915240287781     -0.623809695243835
C       1.337902188301086     -2.714968204498291     -1.282379627227783
H       2.507710456848145      1.028541564941406     -0.567484617233276
H       3.421028614044189      1.798429846763611      0.679468393325806
H       2.979962825775146     -0.102573737502098      2.161133766174316
H       1.049659013748169     -1.195077538490295      1.022539854049683
H       2.402699470520020     -2.083073854446411      1.584742903709412
H      -0.070250503718853     -1.473666071891785     -2.145147323608398
H       3.452845811843872     -2.354326963424683     -0.617275536060333
H       1.654214382171631     -3.193183422088623     -2.228605747222900
H       1.249284505844116     -3.683356285095215     -0.684367299079895
H      -0.723066687583923     -2.890370607376099     -1.769295215606689
H       0.515741884708405      0.985340535640717      1.249006867408752
H       2.573623657226562     -0.890678763389587     -1.198284506797791
H       1.497700333595276      2.113655805587769      2.135592937469482
H       0.102372750639915      0.550296664237976     -0.993212938308716
H       0.098045282065868      3.572301149368286      0.944445967674255
H      -1.995135426521301     -2.997550725936890      1.123068451881409
H      -2.564137458801270     -2.140077590942383      2.542529582977295
H      -0.842224001884460     -1.892241001129150      1.986421942710876
H       1.734303474426270      3.616856575012207      0.228874012827873
H      -3.648149251937866      0.720582902431488     -0.739435553550720
H      -1.459436774253845     -1.292165517807007     -0.723628699779510
H      -2.221192836761475      2.514065504074097     -1.348471164703369
H      -1.725027918815613      1.947569012641907      0.237984120845795
H      -0.394510954618454      1.384645938873291     -2.460350275039673
H       1.192036390304565      2.770015001296997     -1.670268654823303
H      -2.684087038040161      0.281221002340317     -2.115579605102539
N      -0.055385738611221     -2.188394784927368     -1.413818836212158
N      -2.276924610137939     -0.745711922645569     -0.374069482088089
N       0.425601094961166      2.717771291732788     -1.022857427597046
N       2.897829055786133     -0.169091641902924      1.162627100944519
O      -2.983899593353271      0.150213882327080      1.619050025939941
