43
Energy: -902.131699876375 Ha
C       2.303060770034790      2.160784959793091      0.053141780197620
C      -1.373010516166687      1.949257016181946     -1.081011772155762
C      -2.307290077209473      1.425633311271667      1.176390290260315
C      -3.443521976470947      0.440398544073105      0.873300850391388
C      -2.152432918548584     -1.561018943786621      0.611575782299042
C      -1.589376688003540     -2.624958276748657     -0.349311977624893
C      -0.011749935336411      2.671966791152954     -1.002511143684387
C       1.420866370201111     -2.215545892715454     -0.679142594337463
C       1.491202592849731     -1.026880264282227      1.349888324737549
C       2.934690475463867     -0.445815652608871      1.327211260795593
C       2.825823783874512      0.986473858356476     -0.724945425987244
C       0.209366500377655     -1.406213879585266     -1.286210179328918
H      -1.293129801750183     -1.129944682121277      1.184449553489685
H      -3.838742256164551     -0.072197243571281      1.767357707023621
H      -4.308174133300781      0.875647664070129      0.402786821126938
H      -1.320486903190613      0.994040012359619      1.396923899650574
H      -2.586016654968262      2.090412139892578      2.029838800430298
H      -1.964803695678711      2.244216680526733     -1.992179036140442
H      -0.201698720455170      3.751329421997070     -0.924135625362396
H       0.585241496562958      2.329382419586182     -1.905376076698303
H       0.560321390628815      2.303890705108643      1.099208950996399
H      -2.809495687484741     -2.158918857574463      1.307311773300171
H      -1.198547124862671      0.888083159923553     -1.175562620162964
H      -1.008043289184570     -3.350998163223267      0.221294522285461
H       1.384786605834961     -3.220494031906128     -1.133055925369263
H       0.146380633115768     -0.551013469696045     -0.668420851230621
H       2.656697511672974      3.148746252059937     -0.266375571489334
H       2.631886959075928      2.212566852569580      1.133144617080688
H       1.867081880569458      0.450358271598816     -1.113351345062256
H      -2.448196411132812     -3.284731864929199     -0.735689342021942
H       3.085726737976074      0.333180099725723      2.072788715362549
H       3.480721473693848      1.311568617820740     -1.512059211730957
H       0.715307176113129     -0.333710819482803      0.936363279819489
H       1.238954186439514     -1.251223683357239      2.439262866973877
H       2.415380001068115     -1.828602790832520     -0.987783133983612
H       0.652520716190338     -1.105896711349487     -2.272766590118408
H       3.659444332122803     -1.207963228225708      1.647303104400635
N       0.859245896339417      2.075922012329102      0.127676934003830
O      -2.907407283782959     -0.570968568325043     -0.056923113763332
O       3.523187637329102      0.079315945506096      0.088647753000259
O       1.257459044456482     -2.312086343765259      0.704557240009308
O      -1.004858851432800     -2.107568979263306     -1.522705316543579
O      -2.113831281661987      2.399599075317383      0.104514911770821
