45
Energy: -916.5852351959263 Ha
C      -1.714022040367126     -1.047400832176208     -0.520058929920197
C       3.604817628860474      2.946611404418945     -0.294371038675308
C       3.712756633758545      1.487937569618225     -0.031094145029783
C       2.460209608078003      0.802259743213654     -0.423234701156616
C       1.621698856353760     -2.811546564102173     -0.271389454603195
C       1.171037197113037     -1.320406794548035     -0.373097538948059
C       2.578685760498047     -0.674821555614471     -0.504684686660767
C      -3.025156259536743      1.727076530456543      0.642172515392303
C      -1.830520153045654      1.491267919540405     -0.373861372470856
C      -1.557127952575684      0.313261806964874     -1.251620769500732
C      -1.041399121284485     -1.212096095085144      0.850175917148590
C      -4.251845359802246      2.246598482131958      0.022613214328885
H       2.144058704376221      1.198033452033997     -1.365844964981079
H       2.995009183883667     -1.066098213195801     -1.475484490394592
H       3.145262002944946     -0.892787218093872      0.370536535978317
H       1.608607649803162      1.063542842864990      0.322747886180878
H       4.607971191406250      0.983979284763336     -0.462740421295166
H       2.054436206817627     -4.071334362030029      1.197980165481567
H       3.790989160537720      3.234378337860107     -1.305605173110962
H       2.590164661407471      3.377504587173462     -0.078327745199203
H       4.128598690032959      4.199339866638184      1.365443229675293
H       5.200222969055176      3.057844877243042      0.851960003376007
H       0.489304035902023     -1.128358483314514     -1.224770903587341
H       3.792287826538086      1.321989178657532      1.022653460502625
H       0.818571209907532     -1.298758506774902      1.655363202095032
H      -4.836915493011475      2.822062969207764      0.742520928382874
H      -5.870036602020264      1.150882005691528      0.319172680377960
H      -3.446704864501953     -1.946805357933044      0.246613949537277
H      -3.433640480041504     -0.381856858730316      0.113927341997623
H      -5.579075336456299      1.100199103355408     -1.224670052528381
H      -0.530967950820923      0.451385885477066     -1.567744851112366
H      -2.189680099487305      0.125718176364899     -2.175022125244141
H      -1.236998081207275     -1.881043434143066     -1.079884052276611
H      -0.978349089622498      1.562642574310303      0.238029018044472
H      -2.674242258071899      2.521329164505005      1.348920583724976
H      -3.177960395812988      0.911936223506927      1.305263042449951
H      -4.017601013183594      3.003357887268066     -0.793874084949493
H      -1.901519417762756      2.459892034530640     -0.919540584087372
N      -3.197394132614136     -1.150420904159546     -0.332659840583801
N      -5.086172580718994      1.114878177642822     -0.343799144029617
N       0.378295749425888     -1.089373946189880      0.775330245494843
N       4.504226684570312      3.750647306442261      0.509800016880035
O       1.559893608093262     -3.657682895660400     -1.125411272048950
O      -1.660747170448303     -1.243442893028259      1.874183416366577
O       2.093442201614380     -3.092816829681396      0.936525940895081
