46
Energy: -850.1249188520837 Ha
C       3.780939817428589     -1.160915970802307      1.523904085159302
C      -0.069680884480476      3.180221080780029      0.777425110340118
C       0.883913993835449      3.344817876815796     -0.467547684907913
C      -4.327373981475830     -1.169931292533875      1.734621644020081
C      -3.684040546417236     -0.661239922046661      0.437427520751953
C      -2.636852979660034     -1.654226422309875      0.041561156511307
C      -2.073582172393799     -1.486231088638306     -1.378080606460571
C       0.222038477659225      2.111642599105835      1.795775294303894
C      -0.222444579005241      0.253125369548798     -1.011927366256714
C       0.952139973640442     -0.816862523555756     -1.134268164634705
C       1.160595417022705     -1.897578120231628     -0.050384476780891
C       2.489985466003418     -2.681290149688721     -0.121288552880287
C       3.773170709609985     -1.925224065780640      0.186240956187248
C      -1.462470769882202     -0.137256219983101     -1.721122026443481
H      -1.813739538192749     -1.695845007896423      0.751402020454407
H      -3.176908731460571      0.349930584430695      0.551420688629150
H      -4.418340682983398     -0.568794488906860     -0.404303371906281
H      -3.574105501174927     -1.345113515853882      2.492309570312500
H      -4.819164276123047     -2.094355106353760      1.534544825553894
H      -5.109712600708008     -0.522643327713013      2.067024230957031
H      -1.099654197692871      3.018399238586426      0.400957792997360
H       0.435740232467651      4.030918598175049     -1.177163958549500
H      -0.098556026816368      4.117527961730957      1.285658597946167
H      -0.629072129726410      1.889135122299194      2.461028337478638
H       1.068829536437988      2.303848266601562      2.376311302185059
H      -3.112793922424316     -2.641096830368042      0.134243816137314
H       1.867536544799805      3.714923381805420     -0.222092747688293
H      -1.281146645545959     -2.265348672866821     -1.512904882431030
H       0.343501329421997     -2.538007736206055     -0.182322427630424
H      -2.218267679214478      0.672963261604309     -1.601409673690796
H       3.046802282333374     -0.381718784570694      1.483151793479919
H       4.772037982940674     -0.697965681552887      1.615154385566711
H       3.623667478561401     -1.780255079269409      2.432126283645630
H       4.625292301177979     -2.600140571594238      0.144084468483925
H      -2.873158931732178     -1.731523633003235     -2.112051963806152
H       2.366275072097778     -3.514823675155640      0.557775318622589
H       3.965929508209229     -1.213696956634521     -0.644715189933777
H       1.038022994995117     -1.395844221115112      0.903191149234772
H       0.868364453315735     -1.215421319007874     -2.131185054779053
H       1.898764610290527     -0.292569339275360     -1.181810259819031
H      -1.210852742195129     -0.111124046146870     -2.826229095458984
H       2.524921417236328     -3.172567605972290     -1.096660256385803
O       0.585068523883820      0.889178633689880      1.163271546363831
O       0.128578990697861      1.464223146438599     -1.625459194183350
O       1.184015631675720      2.112674951553345     -1.099512577056885
O      -0.613693416118622      0.519786000251770      0.340255677700043
