50
Energy: -770.7634632893145 Ha
C      -3.201026439666748     -2.150689363479614      1.293473362922668
C      -0.562489509582520      3.789801836013794     -0.569087684154510
C       0.564189136028290      3.464052200317383      0.351960271596909
C      -0.202588662505150      1.537927865982056      1.608072042465210
C       0.964034378528595     -0.614953279495239      2.582783460617065
C       2.279172658920288     -1.778931140899658      0.866244494915009
C       3.418384790420532     -1.664731621742249     -0.118916690349579
C      -0.163761928677559      0.000996051472612      1.811212658882141
C       2.081128358840942     -0.749951243400574     -2.172317504882812
C      -0.205733954906464      0.226109281182289     -2.289773464202881
C      -1.538115620613098      0.311743557453156     -1.574762225151062
C      -2.196935653686523     -1.029440760612488     -1.426731705665588
C      -3.507253646850586     -0.807139158248901      0.614921629428864
C       3.271641731262207     -1.287406682968140     -1.420498132705688
H      -0.366514056921005     -0.484704911708832      0.858307659626007
H       2.269551277160645     -2.678611516952515      1.489658236503601
H       2.333091259002686      0.200227364897728      1.345855951309204
H       0.606514632701874     -1.598469257354736      3.073934316635132
H       1.152755618095398      0.047263044863939      3.430183172225952
H      -1.042148590087891     -0.262970864772797      2.409147977828979
H      -0.095791816711426      2.017294168472290      2.634715557098389
H      -0.445837825536728      4.715492725372314     -1.038670897483826
H       1.643255829811096      2.032048463821411      1.151425957679749
H       1.489738225936890      3.855133533477783     -0.119615510106087
H       0.425471901893616      3.957633018493652      1.344259619712830
H      -1.567445039749146      3.809126377105713     -0.142322555184364
H      -0.575222969055176      3.034587144851685     -1.409637808799744
H       1.401732087135315     -1.820085763931274      0.220674201846123
H      -1.189174294471741      1.827621936798096      1.243915081024170
H       4.483813762664795     -1.758835554122925      0.176459312438965
H       0.119790546596050      1.240636825561523     -2.596049308776855
H       2.479399442672729      0.030978789553046     -2.820652484893799
H      -3.278779029846191     -2.035460233688354      2.396199464797974
H      -2.181800842285156     -2.498563528060913      1.013741135597229
H      -3.962908506393433     -2.871247291564941      0.947945356369019
H      -4.536795616149902     -0.497209906578064      0.851167559623718
H      -2.869974613189697      0.019514899700880      0.970458090305328
H       4.105083465576172     -1.412017583847046     -2.112658023834229
H      -1.503576517105103     -1.716638565063477     -0.857525765895844
H      -4.066354751586914     -1.788618445396423     -1.099175333976746
H      -2.266285181045532      0.932191908359528     -2.107148647308350
H      -1.267067074775696      0.806767106056213     -0.628298223018646
H      -0.245515853166580     -0.391147494316101     -3.183204174041748
H       1.045549392700195      0.207643106579781     -0.646532177925110
H       1.786510229110718     -1.564541101455688     -2.816387176513672
H      -2.322714090347290     -1.477912664413452     -2.441999912261963
N       2.268036603927612     -0.690533161163330      1.817528843879700
N      -3.522925138473511     -0.954000711441040     -0.865011692047119
N       0.876865327358246     -0.346011430025101     -1.471672892570496
N       0.726276695728302      2.081766605377197      0.679490804672241
