55
Energy: -818.8875078205365 Ha
C      -0.872688472270966      3.355695962905884     -1.617721438407898
C      -4.140274047851562      1.133254528045654      0.208835765719414
C      -2.746284484863281      0.496881335973740      0.220027461647987
C      -2.955521345138550     -0.894760549068451      0.914063751697540
C      -1.604846477508545     -1.476524949073792      1.171553134918213
C      -0.991519689559937     -2.879097700119019     -0.886897623538971
C       0.201772913336754     -2.230852365493774     -1.349359154701233
C       1.471384048461914     -2.800179958343506     -0.688054561614990
C      -1.225602865219116     -2.850937366485596      0.637595295906067
C       3.155660152435303     -0.758502423763275     -0.754851818084717
C       3.264608144760132     -0.723226487636566      0.857528150081635
C       1.837917566299438     -0.224882751703262      1.325190663337708
C       1.775018095970154      1.171928763389587      1.857528686523438
C       1.832354664802551      2.305570602416992      0.847737610340118
C       0.563231945037842      2.304287433624268     -0.054765433073044
C       0.465690881013870      3.446994304656982     -1.046784996986389
C       2.742467641830444     -2.151957273483276     -1.142934679985046
H      -2.048298835754395     -3.514783620834351      0.962723672389984
H       1.592477798461914     -3.762981176376343     -1.071287035942078
H       0.288332432508469     -2.403703689575195     -2.513336658477783
H       0.131813928484917     -1.048859596252441     -1.204937458038330
H      -1.813301682472229     -2.461836099624634     -1.452901482582092
H      -1.006918430328369     -3.857291936874390     -1.394169807434082
H      -0.308758407831192     -3.134634256362915      1.109237790107727
H      -0.793171882629395     -0.784960806369781      0.903823733329773
H      -5.142617225646973      0.232054248452187     -1.192337155342102
H      -3.541797399520874     -1.599436640739441      0.309398978948593
H      -3.397772312164307     -0.758567333221436      1.913238525390625
H      -2.337093353271484      0.332760959863663     -0.780018806457520
H      -2.021887540817261      1.141940236091614      0.758781790733337
H      -4.454657077789307      1.299960494041443      1.226647138595581
H      -4.211016654968262      2.020908832550049     -0.378806620836258
H       1.361081004142761     -2.888676643371582      0.391796708106995
H      -1.442928075790405     -1.477340221405029      2.228175401687622
H       3.447708368301392     -2.804568529129028     -0.621055841445923
H       2.569924592971802      1.154437780380249      2.636686563491821
H       2.457581281661987     -0.030204016715288     -1.220882534980774
H      -1.125618934631348      2.292959451675415     -1.693826556205750
H      -0.862496078014374      3.727830171585083     -2.632746458053589
H      -1.685921907424927      3.807838678359985     -0.909139633178711
H       1.290256500244141      3.449176788330078     -1.827162384986877
H       0.604472398757935      4.330115318298340     -0.442077428102493
H       0.517890691757202      1.361305356025696     -0.543861865997314
H      -0.302050113677979      2.362828254699707      0.708977699279785
H       2.802309751510620     -2.283068180084229     -2.293534278869629
H       1.830031633377075      3.235296964645386      1.343869924545288
H       0.789046108722687      1.411221742630005      2.315900802612305
H       1.538202881813049     -1.005556464195251      2.036167621612549
H       1.275412559509277     -0.451788693666458      0.519142270088196
H       4.099842071533203     -0.081751987338066      1.185561180114746
H       3.495969295501709     -1.702855348587036      1.293348908424377
H       4.132831096649170     -0.496699601411819     -1.232549548149109
H       2.959304809570312      2.406443119049072     -0.764460861682892
O       3.054574251174927      2.086106538772583      0.129528433084488
O      -5.220623493194580      0.243936121463776     -0.212844818830490
