4
Energy: -185.41899827824722 Ha
C      -0.630248546600342      0.255757957696915     -0.017857547849417
C       0.660538792610168      0.010091371834278      0.061563920229673
N      -1.826094269752502     -0.149645328521729     -0.006324676796794
N       1.800131201744080     -0.078225523233414     -0.031137928366661
