4
Energy: -168.484739040987 Ha
C       0.194262862205505      0.062419507652521      0.019770938903093
H      -1.620897889137268      0.695300698280334     -0.017524363473058
N       1.314159989356995     -0.006826568860561     -0.009611361660063
O      -1.092974901199341     -0.127753973007202     -0.004227716941386
