4
Energy: -114.39630294354892 Ha
C       0.518510699272156      0.000710103427991     -0.002063737018034
H       1.159165024757385      0.874420046806335      0.003977653570473
H       1.195081830024719     -0.860424757003784      0.004020505119115
O      -0.683163881301880     -0.002281985012814      0.000548032985535
