4
Energy: -77.21469987981591 Ha
C       0.618744730949402     -0.075442977249622      0.035622868686914
C      -0.626465678215027     -0.030325256288052     -0.044404063373804
H       1.642374873161316      0.364053934812546     -0.066409833729267
H      -1.596048951148987      0.270555466413498      0.119097001850605
