4
Energy: -168.48206709836924 Ha
C      -0.214321196079254     -0.084094531834126      0.069681838154793
H       1.531570315361023      0.790129363536835      0.035592794418335
N      -1.336195707321167      0.057333976030350     -0.031842533499002
O       1.138465881347656     -0.085862502455711     -0.028848262503743
