5
Energy: -206.50410229241908 Ha
C       0.658046007156372      0.410098791122437      0.023366315290332
C      -0.693581879138947      0.165871441364288      0.195559829473495
H       0.811915218830109      1.638801813125610     -0.322806060314178
N      -1.763887047767639     -0.230797901749611     -0.107774741947651
O       1.468563675880432     -0.434879750013351     -0.029540959745646
