5
Energy: -148.62319041813237 Ha
C      -0.004824820905924     -0.012518078088760      0.018701240420341
H       1.865771770477295     -0.464617311954498      0.340021371841431
H      -1.780794739723206      0.637751042842865      0.266607493162155
N       1.211383581161499      0.110645681619644     -0.060864146798849
N      -1.219387650489807     -0.124649286270142     -0.041826751083136
