5
Energy: -189.60209480121043 Ha
C      -0.117548197507858      0.348529905080795      0.010453472845256
H       1.832345485687256      0.332882761955261      0.036440350115299
H      -0.076299980282784      1.498746633529663     -0.034389704465866
O       1.055980920791626     -0.273448944091797     -0.007741216104478
O      -1.187325477600098     -0.216902151703835     -0.000355219264748
