5
Energy: -40.45096138421968 Ha
C      -0.007732484489679     -0.006592940073460     -0.049551472067833
H      -1.056551456451416     -0.391516357660294     -0.214101582765579
H       0.075011111795902      1.101703166961670     -0.120776973664761
H       0.913338840007782     -0.525515258312225     -0.365443319082260
H       0.114596433937550     -0.145113900303841      0.997630715370178
