5
Energy: -189.58706904651706 Ha
C      -0.092633746564388      0.276555657386780     -0.001674110419117
H       1.694905877113342      0.334404528141022      0.449143469333649
H      -0.103059239685535      1.396390199661255     -0.161122977733612
O       1.076815128326416     -0.238638088107109     -0.060997225344181
O      -1.206320643424988     -0.185128003358841      0.026250246912241
