5
Energy: -148.6285286260772 Ha
C      -0.208168655633926     -0.010210077278316      0.058967012912035
H       1.655188679695129     -0.804316937923431      0.098515182733536
H       1.586831569671631      0.870030641555786      0.093917213380337
N       1.068761348724365     -0.004014913458377     -0.057665508240461
N      -1.353476881980896      0.003378740744665     -0.020367985591292
