6
Energy: -264.7929885814843 Ha
C       0.034680023789406      0.046371500939131      0.042683135718107
H      -1.784258246421814     -0.349593669176102      0.073878310620785
H       1.908985495567322      0.114178568124771     -0.034837052226067
O      -0.968925893306732     -0.778355300426483     -0.022858604788780
O       1.159236907958984     -0.489755243062973     -0.001238498836756
O      -0.231911852955818      1.262758851051331     -0.012795404531062
