6
Energy: -223.83158885003914 Ha
C       2.074364662170410      0.226834043860435      0.070222459733486
H       2.030310153961182      1.224556207656860      0.554987668991089
H       3.068100929260254     -0.055264193564653     -0.294142156839371
N      -2.044540405273438     -0.423599302768707      0.155172467231750
N      -1.712324500083923      0.594445765018463     -0.155627712607384
O       1.094182014465332     -0.465777695178986     -0.084874197840691
