6
Energy: -277.79896294957337 Ha
C      -0.884717941284180      0.608050107955933      0.048116903752089
H      -1.718047142028809      1.231677055358887     -0.046928681433201
N       0.334173947572708      1.096856236457825     -0.043349839746952
N       1.209410667419434      0.102806456387043      0.036549158394337
N      -0.980973064899445     -0.734981477260590     -0.004360844846815
O       0.386009216308594     -1.016593217849731     -0.020455257967114
