6
Energy: -169.64585698656936 Ha
C      -1.113934993743896      0.207090333104134     -0.014976767823100
H       1.577084422111511     -0.002087165834382      0.678929686546326
H      -0.998460412025452      1.275369644165039      0.053035613149405
H      -2.142251253128052     -0.169953942298889      0.198626875877380
N      -0.107949167490005     -0.571826636791229     -0.029393641278148
O       1.125360250473022      0.207114502787590     -0.079372011125088
