6
Energy: -223.82927428568414 Ha
C      -1.684530615806580      0.509163200855255      0.061284359544516
H      -1.653663277626038      1.300031423568726     -0.752801597118378
H      -1.003521203994751      0.710774719715118      0.898948669433594
N       2.357082128524780     -0.553008079528809     -0.009195889346302
N       1.988295197486877      0.493699789047241     -0.019189015030861
O      -2.206659078598022     -0.581328451633453     -0.039394859224558
