7
Energy: -299.0329167502101 Ha
C       1.248102426528931     -0.120773091912270      0.299252301454544
H      -0.123007975518703      1.121619462966919      0.306928783655167
H       0.780673921108246     -0.503874003887177      1.242427468299866
N      -2.748596191406250     -0.328331530094147     -0.175369933247566
N      -1.712949633598328     -0.060051333159208      0.131516680121422
O       0.723855376243591      1.017967581748962     -0.138810828328133
O       2.161712169647217     -0.664770960807800     -0.240926325321198
