7
Energy: -352.95372670659225 Ha
C       0.820955276489258      0.038989014923573     -0.037146039307117
H       0.039146840572357      1.707377552986145      0.715357780456543
N      -0.111862801015377     -1.168701410293579      0.130948618054390
N      -1.246219396591187     -0.850023150444031     -0.066134378314018
N      -0.082526646554470      1.118046045303345     -0.052964203059673
O       1.948445677757263     -0.085727579891682     -0.042331639677286
O      -1.308522820472717      0.631157338619232     -0.029597332701087
