7
Energy: -299.0392189808208 Ha
C      -1.576277732849121     -0.292225062847137      0.118316106498241
H       0.087625324726105      0.421055495738983      0.369938224554062
H      -1.069851040840149     -1.198463797569275      0.498818248510361
N       3.262685060501099     -0.178680375218391     -0.165972620248795
N       2.214595079421997     -0.045663874596357      0.113038860261440
O      -0.760223507881165      0.755613505840302      0.023096257820725
O      -2.727410078048706     -0.242967426776886     -0.174110859632492
