7
Energy: -257.95046378701136 Ha
C       1.058938145637512     -0.171093717217445      0.076070815324783
H       2.114865779876709     -0.505492031574249      0.059888340532780
H      -1.590800404548645      1.379179120063782      0.048664182424545
N       0.143508687615395     -1.093774437904358     -0.086616836488247
N      -1.055913448333740     -0.577894508838654      0.066783845424652
N      -0.679678618907928      0.670229852199554     -0.034110065549612
N       0.609555602073669      1.023278355598450     -0.026768004521728
