7
Energy: -339.75120116250497 Ha
C       1.615545392036438      0.128549173474312      0.295254945755005
H       0.060562029480934      1.009085059165955     -0.284793764352798
H       1.664386630058289      0.594315230846405      1.291152954101562
O      -2.720690965652466     -0.485757201910019      0.116473391652107
O      -1.856496453285217      0.407414644956589     -0.044760469347239
O       0.501642584800720      0.127475917339325     -0.334974676370621
O       2.648267269134521     -0.345970302820206     -0.083974361419678
