8
Energy: -279.1742431690578 Ha
C      -1.830423712730408      0.361872971057892     -0.068397752940655
H      -0.637869000434875     -1.232737421989441      0.306924462318420
H       0.159548476338387      0.293743491172791      0.300389200448990
H      -1.717173457145691      1.435637474060059     -0.335696458816528
N       3.198676347732544     -0.394618988037109     -0.150744110345840
N       2.621762275695801      0.493051409721375      0.151124820113182
N      -0.618580520153046     -0.272254109382629     -0.011418620124459
O      -2.904371261596680     -0.181391179561615      0.027004336938262
