8
Energy: -428.0623918210726 Ha
C      -0.259580940008163     -0.180696725845337     -0.078410252928734
H      -3.056548595428467      0.221292704343796      0.512029767036438
N      -1.408270478248596     -0.739877939224243     -0.032593414187431
N       1.916018486022949     -0.331915944814682      0.025216678157449
N       1.575829863548279      0.870155811309814     -0.022718328982592
O      -2.299479007720947      0.354340970516205     -0.041329137980938
O       0.838934004306793     -1.081823945045471      0.033352587372065
O       0.214168563485146      1.011777281761169      0.029113704338670
