8
Energy: -319.9680240668249 Ha
C      -1.226942777633667     -0.179745435714722      0.167328193783760
H       2.682066440582275      1.120428681373596     -0.365326076745987
H      -2.900554418563843     -1.032486081123352     -0.124690167605877
H      -0.892714917659760     -1.167434930801392      0.514087080955505
N       1.973225831985474      0.406291544437408     -0.038625497370958
O       2.393071174621582     -0.718815326690674     -0.026929857209325
O      -2.531399011611938     -0.153826355934143     -0.191725194454193
O      -0.529137313365936      0.786882162094116      0.123947352170944
