8
Energy: -333.07273996678646 Ha
C       0.790671169757843      0.097744226455688     -0.084131807088852
H       2.528082370758057     -0.790116727352142      0.115939170122147
H      -0.257201194763184      1.645639419555664      0.868019580841064
N       2.043602228164673      0.120328575372696     -0.069300495088100
N      -0.020349256694317     -1.140567064285278      0.096982881426811
N      -1.188346624374390     -0.883750557899475      0.031973838806152
N      -0.219530791044235      1.140218019485474      0.039569754153490
O      -1.415317296981812      0.488051146268845     -0.146718710660934
