9
Energy: -395.15581663355005 Ha
C      -2.286007881164551     -0.071183845400810      0.324448943138123
H      -1.604910373687744      1.681185126304626      0.463012456893921
H      -2.343261003494263     -0.028931144624949      1.410838961601257
H       0.561169326305389     -0.404752105474472      0.355997711420059
N       2.368716239929199     -0.461928158998489      0.268232613801956
O      -1.823897361755371      1.053318738937378     -0.228766053915024
O      -2.598462343215942     -1.036268472671509     -0.296537756919861
O       1.185513019561768      0.245087102055550     -0.027414567768574
O       3.302101373672485      0.039499912410975     -0.204053044319153
