9
Energy: -408.1450864532839 Ha
C       0.285268753767014     -0.241658955812454     -0.191969066858292
H       3.153937578201294     -0.195932313799858      0.635807454586029
H       0.104483000934124      1.823528170585632      0.204283416271210
N       1.403951287269592     -0.793815732002258     -0.126151636242867
N      -1.019334912300110     -1.227634072303772     -0.090656153857708
N      -1.926281452178955     -0.391876250505447      0.306583464145660
N      -0.221360728144646      0.982334434986115     -0.274962604045868
O       2.388298034667969      0.342207461595535      0.160872817039490
O      -1.466904640197754      0.887704908847809      0.040131203830242
