9
Energy: -408.2208808464597 Ha
C       0.320461124181747      0.742312192916870      0.090513765811920
H       1.976316809654236     -1.001386523246765      0.552824735641479
H       1.442423224449158      2.372481346130371     -0.322477310895920
N       0.244079396128654     -0.645186901092529      0.098862402141094
N      -0.928605973720551     -1.046344637870789     -0.081228263676167
N      -1.773630380630493     -0.145081192255020     -0.038695786148310
N       1.360373139381409      1.414016962051392     -0.067559480667114
O       1.331176757812500     -1.414471030235291     -0.078835166990757
O      -1.038304328918457      1.056121349334717      0.059699896723032
