9
Energy: -462.25574084231175 Ha
C      -0.055073410272598     -0.148570761084557     -0.247848570346832
H      -2.660685539245605      1.439833760261536      0.238390952348709
N       1.421456456184387     -0.015842262655497     -0.013049880973995
N      -0.799245178699493     -1.240159034729004     -0.100023001432419
N      -2.079238653182983     -0.725993394851685     -0.015806691721082
N      -1.914614319801331      0.615057528018951      0.052393864840269
N      -0.770246863365173      1.145266652107239      0.163618788123131
O       2.067303180694580     -0.992558717727661      0.223029464483261
O       1.930739998817444      1.117969274520874     -0.143183350563049
