9
Energy: -462.2565171689482 Ha
C       0.040034715086222      0.029839135706425     -0.169010534882545
H       2.631990194320679      1.482527375221252     -0.176785141229630
N      -1.333977103233337     -0.049091693013906      0.035371776670218
N       0.804812967777252     -1.196708202362061      0.052103001624346
N       1.992586731910706     -0.749188065528870      0.226163819432259
N       1.827715277671814      0.622269511222839     -0.009999101981521
N       0.659492611885071      1.106621384620667     -0.239070042967796
O      -1.899768829345703      1.070023059844971      0.271557033061981
O      -1.916057586669922     -1.044883370399475     -0.179199278354645
