10
Energy: -429.352857956843 Ha
C      -1.585507154464722     -0.024757444858551     -0.164790198206902
H      -1.029635429382324     -1.733564257621765      0.714638531208038
H       2.872214317321777     -0.181316569447517     -0.371719896793365
H       4.190834999084473     -0.589469671249390     -1.095936655998230
N      -0.872530937194824      1.225264668464661     -0.141256034374237
N       0.238769203424454      0.999255537986755      0.397865146398544
N      -0.647286593914032     -1.017432332038879      0.128292486071587
O      -2.715092897415161     -0.308686405420303     -0.502150177955627
O       0.440013706684113     -0.302854239940643      0.691745817661285
O       3.830950260162354     -0.113049283623695     -0.308664619922638
