10
Energy: -375.172413938734 Ha
C      -0.582570791244507     -0.432494521141052     -0.099024049937725
H       2.683155298233032      0.436744689941406      0.579073071479797
H       0.656018376350403     -1.734030008316040      0.224688351154327
H      -2.042788028717041      0.959826886653900     -0.144757449626923
H      -0.185369268059731      1.899033069610596      0.987608730792999
N       0.668765544891357     -0.763548076152802      0.150403410196304
N      -1.053387999534607      0.891663074493408     -0.287718325853348
O       2.017109632492065     -0.208495259284973     -0.235839143395424
O      -1.327185750007629     -1.413317918777466      0.106194004416466
O      -0.055328235030174      1.638886690139771      0.118237145245075
