10
Energy: -483.25009188158276 Ha
C       0.333405673503876      0.028851471841335     -0.207396358251572
H       2.343355178833008     -1.285629630088806     -0.035348687320948
H      -1.263986349105835      2.485959768295288      0.336965501308441
N       1.496208429336548      0.665088176727295     -0.322674453258514
N       0.081717863678932     -1.133403062820435      0.273064136505127
N      -1.072336792945862     -1.448398590087891      0.274237126111984
N      -0.839430034160614      0.684358358383179     -0.529362857341766
O       2.471774816513062     -0.176242560148239      0.116187356412411
O      -1.765817284584045     -0.430986732244492     -0.324720978736877
O      -0.798822462558746      1.513860225677490      0.593022763729095
