11
Energy: -409.498750828903 Ha
C       1.065714716911316     -0.106353580951691     -0.002832251368091
H       2.118767261505127     -1.795489072799683      0.030918763950467
H       2.964941263198853     -0.473100513219833      0.605352401733398
H       0.322290897369385      1.808374404907227     -0.039256695657969
H       2.097375631332397      1.636650800704956     -0.189007490873337
N       2.279281377792358     -0.795633792877197     -0.057633813470602
N       1.199886560440063      1.229328513145447      0.021569803357124
N      -0.079452924430370     -0.794731914997101     -0.067973688244820
N      -1.290524005889893     -0.115864582359791     -0.001111766207032
O      -1.273666381835938      1.112736344337463      0.006528253201395
O      -2.309083700180054     -0.762736558914185      0.036600846797228
