11
Energy: -463.4707663943891 Ha
C      -0.412024557590485     -0.069519780576229     -0.077140606939793
H      -3.442874431610107     -0.569875240325928     -0.335047364234924
H      -2.845703601837158      0.967580854892731     -0.004483432043344
H       1.980012774467468     -1.957571387290955      0.249005571007729
N      -2.720500946044922     -0.052737630903721      0.096551060676575
N      -1.510444998741150     -0.599761545658112     -0.241443470120430
N      -0.117231346666813      1.314034819602966      0.322468429803848
N       1.064151883125305      1.586296677589417      0.273296713829041
N       0.864713191986084     -0.607783734798431     -0.479485094547272
O       1.765415072441101      0.327970832586288     -0.515745103359222
O       1.199072122573853     -1.515890240669250      0.609952032566071
