11
Energy: -368.53931776781354 Ha
C       0.405630975961685     -0.603082060813904     -0.201861813664436
H       2.200457334518433     -0.551028847694397      0.909055352210999
H       1.988617777824402     -1.967745423316956     -0.053448602557182
H       1.226533770561218      1.995149016380310     -0.874116599559784
H       0.072629570960999      2.407639741897583      0.150448292493820
N       1.838623881340027     -0.985771954059601      0.086579523980618
N      -0.679064810276031     -1.370915651321411     -0.093128651380539
N      -1.763123989105225     -0.487642645835876      0.091204866766930
N      -1.372464537620544      0.676902115345001      0.135980919003487
N      -0.008793534711003      0.629207909107208     -0.154207661747932
N       0.853105306625366      1.786002755165100      0.087747067213058
