11
Energy: -409.355560980952 Ha
C      -1.045780301094055     -0.023327937349677     -0.025832414627075
H      -3.110750198364258     -0.584925949573517      0.041580740362406
H      -1.739741921424866     -2.143531322479248     -0.302936524152756
H      -2.398838281631470      1.021201491355896      0.922361314296722
H      -1.557320117950439      1.866933703422546     -0.419147193431854
N      -2.123057365417480     -0.817360818386078     -0.248303204774857
N      -1.240155458450317      1.237891674041748      0.450573533773422
N       0.100655019283295     -0.846265614032745     -0.050839394330978
N       1.299921512603760     -0.012269345112145     -0.052093245089054
O       2.252943515777588     -0.711479365825653      0.385605514049530
O       1.349529862403870      1.092269062995911     -0.483383983373642
