11
Energy: -463.45901881712683 Ha
C       0.157312989234924     -0.562166810035706     -0.091140069067478
H       3.221879959106445     -0.401401519775391     -0.425426483154297
H       2.674742698669434     -0.163278400897980      0.957993507385254
H       1.263501167297363      1.231196999549866     -0.214476123452187
N       2.306563138961792     -0.084482386708260      0.004551795776933
N       1.253893613815308     -1.180386066436768     -0.001390441437252
N      -2.173429489135742     -0.419016808271408      0.054345756769180
N      -1.712083458900452      0.803670763969421      0.056477706879377
N      -0.325300008058548      0.676844894886017     -0.250730246305466
O      -0.941576659679413     -1.317757487297058      0.048066843301058
O       0.497638285160065      1.834016323089600      0.100179091095924
