12
Energy: -430.35984259273596 Ha
C      -0.062911756336689     -0.073945306241512      0.176972225308418
H       1.019250631332397      1.406310796737671     -0.904435873031616
H      -1.618921995162964      1.056837677955627      0.025639507919550
H       1.456530451774597      0.450305312871933      1.289173245429993
H       1.461625337600708     -1.823463320732117      0.406614214181900
H      -2.387322187423706     -1.630634307861328     -0.827204108238220
N      -0.558657407760620      1.152173519134521      0.293016135692596
N       1.307952642440796     -0.006166449282318      0.269791543483734
N      -0.657521784305573     -1.212683200836182     -0.042970575392246
O       0.065346524119377      2.218595981597900     -0.297381341457367
O       1.967690467834473     -1.159759163856506     -0.296228677034378
O      -2.057550191879272     -0.877455890178680      0.007300000637770
