12
Energy: -443.7009600916326 Ha
C      -0.031004171818495      0.665124058723450      0.062184631824493
H       2.502428293228149      1.202355265617371      0.006401723716408
H       3.053816318511963     -0.325507879257202      0.603748619556427
H      -2.565742492675781      0.686256527900696      0.900761842727661
H      -2.691851139068604      0.492740571498871     -0.842079043388367
N       2.372229099273682      0.199339121580124     -0.010792051441967
N       1.046255707740784     -0.165583610534668     -0.041515782475471
N       0.642676591873169     -1.454392194747925     -0.065106526017189
N      -0.659820139408112     -1.518166542053223     -0.032501470297575
N      -1.053369998931885     -0.259344905614853      0.047959763556719
N      -2.348628520965576      0.187331050634384      0.050689980387688
O      -0.013503052294254      1.878641366958618     -0.085384778678417
