12
Energy: -443.6286570923617 Ha
C       0.408792883157730     -0.019242521375418     -0.290678203105927
H       3.434745311737061      0.282789140939713     -0.029953280463815
H       2.451226234436035     -1.129285216331482      0.333829790353775
H      -2.570913314819336     -0.168876916170120      0.385169535875320
H      -1.168537020683289      2.454167366027832      0.155950620770454
N       2.568361520767212     -0.115409202873707      0.192231804132462
N       1.518127679824829      0.557084083557129     -0.289401501417160
N       0.074497342109680     -1.289977669715881      0.163665443658829
N      -1.134059429168701     -1.457171082496643      0.232155025005341
N      -1.829251170158386     -0.382420837879181     -0.270413815975189
N      -0.827800750732422      0.723059237003326     -0.576104879379272
O      -0.898550510406494      1.553813695907593      0.591768503189087
