12
Energy: -376.33927213617034 Ha
C      -1.673983931541443      0.928643524646759      0.071973130106926
H      -2.108372449874878     -1.404257774353027      0.109262295067310
H      -3.706920862197876     -1.284184694290161     -0.344115465879440
H      -1.533408880233765      2.003765106201172     -0.103617943823338
H      -0.741369485855103      0.412630110979080      0.166564017534256
H       3.418272018432617      0.835921168327332      0.593750357627869
H       0.862169027328491     -0.689955770969391     -0.024015214294195
N      -2.990716218948364     -0.886496245861053      0.259056121110916
N      -2.844921827316284      0.438660770654678     -0.051050342619419
O       3.114278316497803     -0.064013384282589      0.686291277408600
O       2.525060415267944     -0.315696358680725     -0.540746033191681
O       1.198536276817322      0.090843386948109     -0.431258738040924
