12
Energy: -430.50690127430346 Ha
C      -0.154641076922417     -0.288259774446487      0.081641785800457
H       2.004628658294678      1.234031915664673     -0.066878102719784
H      -0.657990694046021      1.595578908920288     -0.308320432901382
H      -1.677252650260925     -1.579894900321960      0.344243526458740
H      -2.936724424362183      0.650905251502991      0.216357126832008
H       2.454354286193848     -1.621020674705505     -0.388797491788864
N       0.158914670348167      0.985098183155060     -0.337357193231583
N      -1.471909642219543     -0.575246214866638      0.462035536766052
N       0.695419073104858     -1.252790689468384      0.152740776538849
O       1.202568411827087      1.589810252189636      0.367727041244507
O      -2.389254093170166      0.122043229639530     -0.377337843179703
O       1.944668531417847     -0.793037295341492     -0.268937885761261
