12
Energy: -389.6428634069923 Ha
C       0.063859015703201     -0.292728453874588      0.820572614669800
H      -1.202450394630432      2.425156593322754      0.530563712120056
H      -0.310055524110794      2.278681993484497     -0.809716701507568
H       0.723176836967468     -0.074410647153854      1.664538383483887
H       3.220485687255859     -0.031102132052183      0.497841715812683
H       2.226620197296143     -0.472221612930298     -0.517917692661285
N      -0.333130389451981      1.960400104522705      0.166953369975090
N      -0.626227200031281      0.604763269424438      0.096802890300751
N      -0.441511869430542     -1.492045164108276      0.532723367214203
N      -1.362266778945923     -1.227939248085022     -0.487737864255905
N      -1.497062563896179      0.005428153090179     -0.696526646614075
O       3.097557544708252     -0.165497839450836     -0.446781396865845
