13
Energy: -410.387364487254 Ha
C      -0.021787714213133      0.021095341071486     -0.116804175078869
H       2.627304553985596     -0.624093890190125      0.950053751468658
H       2.824209690093994     -0.189494878053665     -0.820184946060181
H       1.800086855888367      1.358333945274353      0.020705476403236
H       0.159963384270668     -1.814547181129456      1.126886248588562
H      -2.098268747329712     -0.828764677047729     -0.899536788463593
H      -1.520814061164856      2.666793107986450      1.273772358894348
N       2.214610815048218     -0.637805104255676     -0.029524493962526
N       1.269686698913574      0.354308426380157      0.039338495582342
N      -0.250934422016144     -1.476010441780090     -0.078713439404964
N      -1.111994743347168      0.787980139255524     -0.078823730349541
O      -1.852766633033752     -1.386387467384338      0.086967557668686
O      -0.461150079965591      2.149623632431030     -0.076568678021431
