13
Energy: -451.5396249627014 Ha
C       1.232829451560974     -0.080082036554813     -0.078626997768879
H      -1.688745021820068     -0.292788445949554     -0.717172086238861
H      -3.201956748962402     -0.136851057410240     -0.803053140640259
H      -1.066260337829590      1.375137805938721      0.462569773197174
H       1.264844059944153      1.754463672637939     -0.490288019180298
H       0.807774841785431     -2.050429582595825     -0.248406872153282
H      -1.055557966232300     -0.162789151072502      0.695601344108582
N       0.454093277454376      1.040021657943726     -0.493438959121704
N       0.445288270711899     -1.267902374267578      0.374544769525528
O      -2.568319797515869      0.032638836652040     -0.171321347355843
O      -0.141829729080200      1.489518880844116      0.568248331546783
O       2.433256387710571     -0.202071651816368     -0.163695037364960
O      -0.817200422286987     -1.121471762657166      0.067364335060120
