14
Energy: -580.8102068557314 Ha
C       0.662921965122223     -0.025886602699757      0.452582895755768
H      -2.185699939727783     -1.481157064437866     -1.142866015434265
H       2.252378940582275     -1.066020488739014     -1.259434580802917
H       1.186331152915955     -1.942354679107666      0.762892246246338
H       0.418978393077850      1.919592380523682      0.012563978321850
H       2.769967317581177      1.420289993286133      0.456584870815277
N      -3.203625917434692     -0.182328581809998     -0.373305827379227
N       1.598978638648987     -1.036743879318237      0.536258816719055
N       1.010057568550110      1.126532435417175     -0.222037732601166
O      -1.963955760002136     -0.745327830314636     -0.618317306041718
O      -3.110174655914307      0.786215364933014      0.293626457452774
O       2.642167091369629     -1.153871297836304     -0.376586884260178
O      -0.434851855039597     -0.147953078150749      0.963402330875397
O       2.334645509719849      1.505030393600464     -0.403580129146576
