14
Energy: -526.7299611703022 Ha
C      -1.907696962356567     -0.048183169215918     -0.046262864023447
H       2.807503461837769     -0.702523350715637      1.012934207916260
H       2.680108070373535      1.039475679397583     -0.617767810821533
H       0.598814427852631      1.395467400550842     -0.181328132748604
H      -1.922918438911438      1.938224911689758     -0.109654754400253
H      -1.587076783180237     -2.012492179870605      0.055068731307983
H       0.774058997631073     -1.057603478431702      0.519272148609161
N      -1.262103199958801      1.165654540061951     -0.244743272662163
N      -1.111946582794189     -1.138036727905273      0.277533620595932
O       2.725999116897583     -0.686508119106293      0.061060134321451
O       3.393140316009521      0.537376105785370     -0.236412703990936
O      -0.096953757107258      1.399187684059143      0.494043886661530
O      -3.116756677627563     -0.151177793741226     -0.148349076509476
O       0.183826312422752     -1.161974668502808     -0.249152198433876
