14
Energy: -498.7547035916033 Ha
C      -0.002911668503657      0.480191558599472     -0.022644748911262
H       2.887088060379028      0.974101305007935     -1.098945856094360
H       2.239295721054077      1.970149874687195      0.486104041337967
H      -2.286302089691162     -1.377102613449097      1.310562610626221
H      -2.838055372238159     -0.530301928520203     -0.363991469144821
H      -2.290981054306030      2.291976690292358     -0.717475116252899
N       2.414015769958496      0.853700160980225      0.065851882100105
N       1.239169955253601      0.123897299170494      0.216496035456657
N       1.438570737838745     -1.223518848419189      0.035001110285521
N       0.327561289072037     -1.827668428421021     -0.134889557957649
N      -0.612037897109985     -0.782891750335693     -0.313086539506912
N      -1.912849664688110     -1.322603583335876      0.126708298921585
N      -0.421854138374329      1.625836730003357      0.073784664273262
O      -1.875201106071472      1.457845807075500      0.003819125937298
