14
Energy: -498.7705931512559 Ha
C       0.079339690506458     -0.368525952100754      0.069485560059547
H       1.774829268455505      1.959337234497070     -0.978592097759247
H       2.263649463653564      0.738997280597687      0.997921586036682
H      -1.648493051528931     -2.335051298141479     -0.366368621587753
H      -2.196223735809326     -1.695251822471619      1.201367497444153
H       2.361070394515991     -2.077311038970947     -0.148941084742546
N       1.608946084976196      1.548567175865173      0.360286951065063
N       0.335908979177475      0.941431701183319     -0.009567170403898
N      -0.778305888175964      1.723726749420166      0.013900894671679
N      -1.708145737648010      0.995415031909943     -0.323553949594498
N      -1.204632043838501     -0.281592607498169     -0.106609769165516
N      -1.999210000038147     -1.406523108482361      0.139172732830048
N       0.816733419895172     -1.409504890441895      0.143405348062515
O       2.183758258819580     -1.145025610923767     -0.330193221569061
