15
Energy: -266.63329586667226 Ha
C       2.206945657730103     -0.663782477378845      0.035457242280245
C       0.667173624038696      1.112944483757019      0.198961377143860
H      -0.757018566131592     -0.828595638275146      0.408539772033691
H      -1.601738333702087      0.281420588493347      1.265168428421021
H      -3.069759368896484      0.514918148517609     -0.252570986747742
H      -2.603532314300537     -0.811933577060699     -1.034630417823792
H       2.947179555892944      0.016450162976980      0.450026273727417
H       2.707871437072754     -1.265247344970703     -0.750691831111908
H       1.859814643859863     -1.316890358924866      0.843249917030334
H       0.734535217285156      0.935159206390381      1.297582268714905
H      -0.351294398307800      1.322159409523010     -0.089617140591145
H       1.291022658348083      2.018644809722900      0.011271796189249
N      -1.688831806182861     -0.556181788444519      0.692073762416840
N      -2.229162216186523      0.013908755034208     -0.570035576820374
O       1.128020167350769      0.029356746003032     -0.551138401031494
