15
Energy: -370.86620480463444 Ha
C      -0.153699457645416     -0.123975917696953     -0.111506149172783
H       3.033351898193359     -0.971338808536530     -0.151985108852386
H       2.076474905014038     -1.431815743446350      1.189776062965393
H       0.722849249839783     -1.966309070587158     -0.435235023498535
H      -1.491155266761780     -1.484206199645996     -0.734572768211365
H      -2.506924152374268      0.379336804151535      1.020767807960510
H      -2.526570558547974      0.609724640846252     -0.690939843654633
H       0.291125357151031      2.874908447265625     -0.092086695134640
H       1.623055100440979      1.591533064842224      0.616472661495209
N       2.156034469604492     -0.644343972206116      0.351231396198273
N       0.910835742950439     -0.937359154224396     -0.501791357994080
N      -1.257915139198303     -0.936774790287018      0.096702694892883
N      -2.427620887756348     -0.183078229427338      0.166943401098251
N      -0.248504012823105      1.079114556312561      0.102576702833176
N       0.824311435222626      1.785587668418884     -0.223257169127464
