15
Energy: -411.97196422845013 Ha
C      -0.274059087038040     -0.012504828162491     -0.275037288665771
H       3.585005998611450     -1.103740692138672      0.910495340824127
H       2.785449981689453     -0.780539751052856     -0.379311054944992
H      -2.428235769271851     -1.895671963691711     -0.665856778621674
H      -1.238619446754456     -2.380702972412109      0.366962343454361
H      -1.710718870162964      0.080708347260952      1.260470032691956
H       0.930940926074982      1.425685763359070     -0.888410329818726
H      -1.642672181129456      2.087510108947754     -0.169940412044525
H      -0.597364187240601      2.400336742401123      1.081850886344910
N      -1.951299190521240     -1.661982893943787      0.234739989042282
N      -1.472274303436279     -0.321927070617676      0.358512133359909
N       0.112373732030392      1.211232662200928     -0.316935479640961
N      -0.663919806480408      2.340405941009521      0.092416547238827
O       3.256346940994263     -0.396626114845276      0.369746863842010
O       0.466953724622726     -0.944955885410309     -0.675642967224121
