15
Energy: -370.7636917179474 Ha
C      -0.176125332713127     -0.218587517738342     -0.034059915691614
H       2.812692165374756     -1.005046844482422     -0.434395879507065
H       2.471452713012695     -0.970173656940460      0.988301455974579
H       0.489562004804611     -2.112023591995239      0.328116446733475
H      -1.743906378746033     -1.182703256607056     -1.159937500953674
H      -1.595210313796997      1.027639508247375      1.123568654060364
H      -2.586821794509888      0.870005071163177     -0.753540098667145
H       1.048790693283081      2.809857368469238      0.176378130912781
H       1.683043837547302      1.092560410499573     -0.027401333674788
N       2.063022613525391     -0.660072743892670      0.110315464437008
N       0.719925761222839     -1.309735417366028     -0.126225754618645
N      -1.450667500495911     -0.829413175582886     -0.030962046235800
N      -2.467555284500122      0.063189193606377      0.243545040488243
N      -0.119206503033638      1.087242722511292     -0.082170888781548
N       1.036930799484253      1.760419368743896     -0.119749024510384
