15
Energy: -411.96942536770297 Ha
C       0.559410035610199     -0.241687774658203      0.273471653461456
H      -3.726751565933228     -1.248143792152405      0.234931200742722
H      -2.776616573333740     -0.309024572372437     -0.576922595500946
H      -1.354343056678772      1.679177641868591     -0.720188736915588
H      -1.266037464141846      1.547158479690552      0.920521676540375
H       1.312544226646423      1.723770856857300      0.288458108901978
H       1.582967519760132     -1.924710750579834      0.145380795001984
H       2.423789739608765      0.238270491361618     -1.335235357284546
H       3.315310239791870      0.114734083414078      0.060272093862295
N      -0.713758587837219      1.793527245521545      0.098181158304214
N       0.543857872486115      1.122438192367554      0.005581150762737
N       1.634176731109619     -0.909009516239166      0.053978882730007
N       2.799661874771118     -0.409770250320435     -0.607563138008118
O      -3.660276651382446     -0.677814483642578     -0.533892631530762
O      -0.429084539413452     -0.766111254692078      0.845230937004089
