16
Energy: -383.9699100109353 Ha
C       3.286775112152100     -1.542958974838257      0.089764282107353
C       2.432576417922974     -0.731947481632233     -0.177550256252289
C       1.291843891143799      0.072294533252716     -0.125070050358772
C       1.223578810691833      1.494782328605652     -0.080517709255219
C      -0.016537657007575      2.093348026275635      0.077121488749981
C      -1.166072368621826      1.229166984558105      0.054538689553738
C      -1.102154254913330     -0.149224773049355      0.180546179413795
C       0.075522609055042     -0.661225259304047     -0.001621037605219
C      -2.421618700027466     -0.781739592552185      0.077646106481552
C      -3.536774158477783     -1.245516061782837     -0.194012194871902
H       4.156481266021729     -1.955922603607178      0.578687071800232
H       2.065171957015991      2.021313428878784     -0.247073456645012
H      -0.194172114133835      3.149232864379883     -0.056131329387426
H      -2.112056970596313      1.673305630683899      0.263925701379776
H       0.073604911565781     -1.697708249092102     -0.028645999729633
H      -4.391867637634277     -1.852099180221558      0.084165073931217
