16
Energy: -666.2471153119341 Ha
C       2.450225114822388      0.529564499855042     -0.113938868045807
C      -1.754004836082458     -0.587516605854034     -0.284619927406311
H       2.662882566452026      2.402776241302490     -0.884584724903107
H       3.910152912139893      1.358693599700928     -1.317170381546021
H      -0.192553609609604     -1.557492852210999     -0.137827411293983
H      -4.265137195587158      0.721995294094086      0.458740353584290
N       3.154760837554932      1.549927115440369     -0.683566927909851
N       1.547839879989624      0.587326347827911      0.801953017711639
N       1.227178931236267     -0.701425552368164      1.066913247108459
N       1.940495371818542     -1.483520627021790      0.397224396467209
N      -1.124338388442993     -1.658258438110352     -0.574624478816986
N      -1.360142230987549      0.616989552974701      0.332886040210724
N      -2.396022319793701      1.325504541397095      0.478800088167191
N      -3.448859930038452      0.790518403053284     -0.147367656230927
O       2.706338644027710     -0.719457507133484     -0.428998023271561
O      -3.091219663619995     -0.501503527164459     -0.500168144702911
