16
Energy: -383.983552404 Ha
C      -3.743375539779663     -1.106481313705444      0.162793040275574
C      -2.610125780105591     -0.739953041076660     -0.146072819828987
C      -1.292224407196045     -0.008121591992676     -0.142420873045921
C      -1.151229143142700      1.399827599525452      0.016247853636742
C       0.140163704752922      1.988723874092102      0.068808563053608
C       1.248359560966492      1.169779539108276     -0.025271963328123
C       1.170237779617310     -0.200354471802711     -0.151383936405182
C      -0.097764305770397     -0.753346920013428     -0.066859528422356
C       2.530475854873657     -0.926092922687531     -0.030036652460694
C       3.722732782363892     -1.093005418777466      0.137252032756805
H      -4.520077705383301     -1.865525484085083      0.455917060375214
H      -2.101895809173584      2.017323255538940      0.025967026129365
H       0.345230221748352      3.045800924301147      0.264385938644409
H       2.196773767471313      1.711083173751831      0.116963170468807
H      -0.168642953038216     -1.791224122047424      0.051329903304577
H       4.745110988616943     -1.503309845924377      0.147102594375610
