17
Energy: -513.1402884818491 Ha
C       0.865859389305115     -0.148522615432739      1.819201469421387
C       0.900831818580627     -1.198063373565674     -0.860143899917603
C       2.137955427169800      0.957523226737976     -0.967165589332581
C       3.096045494079590      1.789366364479065     -0.563024163246155
C      -5.012436389923096      0.503227174282074     -0.586379885673523
C       1.991160869598389     -0.365739107131958     -0.334839999675751
C      -2.624579668045044      0.240715697407722      0.389742046594620
C      -1.522394061088562      0.115439333021641      0.835891127586365
C      -0.237999126315117     -0.026876457035542      1.360997915267944
C      -3.907814264297485      0.383827269077301     -0.132889688014984
H       1.797433853149414     -0.247927799820900      2.219642400741577
H      -5.984541893005371      0.611299693584442     -0.990707278251648
H       3.241255521774292      2.772962093353271     -1.005140066146851
H       3.767156362533569      1.490157246589661      0.238798782229424
H       1.444948554039001      1.214860796928406     -1.762980699539185
N       0.020220667123795     -1.861408352851868     -1.287534594535828
O       2.684053182601929     -0.789609849452972      0.568099141120911
