17
Energy: -459.0276662856159 Ha
C       3.566330909729004     -1.668442130088806     -0.515549361705780
C       0.380474239587784     -0.255634129047394      1.730205297470093
C      -2.010149002075195     -1.028165817260742      0.839699208736420
C      -2.181474685668945     -0.762715041637421     -0.651966094970703
C      -0.574334979057312      3.170681238174438     -0.147366881370544
C      -0.702270627021790     -0.610535502433777      1.348103523254395
C       1.110697865486145      1.203858375549316     -0.301940023899078
C       1.887008190155029      0.297771632671356     -0.368470519781113
C       2.791218519210815     -0.764027893543243     -0.447628349065781
C       0.208594009280205      2.253863096237183     -0.217923656105995
H       1.312393426895142      0.039702404290438      2.090090036392212
H       4.272948741912842     -2.516657114028931     -0.567610621452332
H      -1.260055899620056      3.991635322570801     -0.083776682615280
H      -1.431303024291992     -0.104273878037930     -1.130411982536316
H      -2.819891929626465     -0.489712953567505      1.367541432380676
H      -2.189128875732422     -2.094399929046631      1.018782019615173
O      -3.092690944671631     -1.230777144432068     -1.287199020385742
