17
Energy: -538.2292581256337 Ha
C      -2.363171100616455      0.012874761596322     -0.292229026556015
C       1.716227412223816     -0.027705073356628     -0.047540631145239
H       2.900563716888428     -1.653182864189148      0.346569985151291
H       1.607277393341064     -1.963142395019531     -0.814616680145264
H       0.194755569100380     -0.364332467317581     -1.410683870315552
H       1.954482316970825      1.668545007705688      0.778508126735687
H      -0.246417373418808      1.842382669448853      0.113648816943169
H      -3.229595899581909      0.356818318367004     -0.845160722732544
H       0.784484386444092      2.277294874191284     -1.086972594261169
N       2.355960369110107      0.724279761314392      0.772788047790527
N      -1.812159538269043      0.693171858787537      0.768291413784027
N      -0.831314206123352      0.022416768595576      1.163224935531616
N      -1.719771981239319     -1.080767393112183     -0.555774688720703
N       0.082865655422211      1.597478389739990     -0.820714414119720
N       0.644756078720093      0.323364526033401     -0.830356061458588
N       2.104719161987305     -1.338325023651123     -0.204523593187332
O      -0.732409536838531     -1.083341717720032      0.363346964120865
