18
Energy: -493.48149823184906 Ha
C       2.253976345062256     -1.143112421035767     -0.196445107460022
C      -0.044290345162153     -0.204578340053558     -0.179863661527634
C      -1.863557696342468     -1.723307967185974      0.136726990342140
C      -2.379365682601929      0.493922740221024     -0.124301068484783
C      -0.911106407642365      0.785587906837463     -0.154825255274773
C      -0.488927721977234     -1.615150690078735     -0.040750842541456
C       0.887196362018585      2.391886472702026      0.157561048865318
C       1.846628665924072      1.295059561729431      0.017932644113898
C       1.390752792358398     -0.020243696868420     -0.221984282135963
C      -0.452582031488419      2.113624334335327      0.093045167624950
H       2.881130456924438      1.623522162437439     -0.170637011528015
H       1.223870992660522      3.493223190307617      0.296792089939117
H      -1.085974812507629      2.964177608489990      0.174149334430695
H      -3.018813848495483      1.366191387176514     -0.001617163885385
H      -2.287659883499146     -2.797202110290527      0.138630151748657
H       0.303638786077499     -2.429972410202026     -0.203114092350006
N       2.847272872924805     -1.953990340232849      0.280529379844666
N      -2.768492698669434     -0.683447897434235      0.125645309686661
