18
Energy: -534.4553742577187 Ha
C      -0.697294712066650      1.536167621612549     -0.072252489626408
C       0.407147765159607      0.687278568744659     -0.019101351499557
C       2.749600172042847      0.321494519710541      0.056618526577950
C       2.460726499557495     -1.054513692855835     -0.116691529750824
C       1.217352271080017     -1.555007457733154     -0.018320119008422
C       1.677976608276367      1.155722737312317      0.039993904531002
C      -1.255575418472290     -1.288434386253357      0.027565771713853
C      -2.384015083312988     -0.350592136383057     -0.054062560200691
C      -2.100446701049805      0.954840838909149     -0.056555602699518
C       0.138127386569977     -0.724189996719360      0.011403475888073
H      -2.792213916778564      1.732676744461060      0.109991773962975
H      -3.337814807891846     -0.860646128654480      0.064827598631382
H       0.933023393154144     -2.657556295394897      0.093687854707241
H       3.307869911193848     -1.737319469451904      0.070033378899097
H       3.739110469818115      0.780420899391174     -0.111287660896778
H       1.842150092124939      2.180870056152344      0.242685467004776
O      -0.620960056781769      2.785247564315796      0.036689896136522
O      -1.500754594802856     -2.477128267288208      0.055619288235903
