18
Energy: -385.3049841597256 Ha
C       2.713383197784424     -0.007311524357647     -0.003597423201427
C       1.902541279792786      1.133913755416870     -0.015926565974951
C      -0.553746581077576      1.606315732002258     -0.014586189761758
C      -1.890861988067627      1.278824806213379      0.006141784135252
C      -2.489953756332397      0.027434460818768     -0.006829294841737
C       0.551739573478699      0.729940474033356      0.014769298024476
C      -0.556888341903687     -1.599606633186340     -0.001044395263307
C       0.532506406307220     -0.745379865169525     -0.010878165252507
C       1.903448224067688     -1.124888777732849      0.017132623121142
C      -1.917919158935547     -1.283082723617554      0.020090067759156
H      -0.339305281639099      2.677463293075562      0.023969715461135
H       3.798822879791260     -0.063107803463936      0.069264717400074
H       2.282441616058350     -2.143676042556763      0.042713988572359
H      -0.350881993770599     -2.668317079544067     -0.079646930098534
H      -2.639333248138428     -2.103655576705933     -0.063956566154957
H      -3.581676006317139     -0.086448632180691     -0.040324356406927
H      -2.596469640731812      2.125748872756958      0.113882169127464
H       2.260909795761108      2.165035247802734     -0.097533166408539
