18
Energy: -410.0226435117726 Ha
C       1.909402728080750     -1.414592146873474     -0.692631483078003
C      -0.521269142627716      0.216889664530754     -0.051522929221392
H      -2.953652620315552     -0.670895814895630      1.613170146942139
H      -1.871257662773132     -1.988974452018738     -0.141986474394798
H      -2.406263351440430      0.984165191650391     -0.510036647319794
H       1.564588308334351      1.298654437065125      0.848056137561798
H       0.589492321014404      2.541973114013672      1.035627245903015
H       1.852426528930664     -1.295864820480347      1.265533804893494
H       1.195135116577148     -2.190705776214600     -0.930245816707611
H       2.941815137863159     -1.834157347679138     -0.614184141159058
H       2.007725954055786     -0.791588962078094     -1.733057856559753
H      -0.397908717393875      1.775807857513428     -1.155759572982788
N      -1.779889822006226      0.114591538906097     -0.463270276784897
N       1.625555515289307     -0.599195003509521      0.641543805599213
N       0.085815265774727     -0.645477950572968      0.733044922351837
N       0.070465549826622      1.300623774528503     -0.519766747951508
N       1.045499563217163      2.036266803741455      0.186786159873009
N      -2.597574949264526     -0.869980394840240      0.105634987354279
