19
Energy: -514.4252863138059 Ha
C      -2.409136772155762     -1.037141799926758      0.111547581851482
C       0.578975200653076     -1.492053270339966     -0.019728554412723
C       1.949059128761292     -1.817503929138184      0.093772098422050
C       2.742414236068726     -0.602353274822235      0.000790174817666
C       2.414991617202759      0.607400715351105      0.088826626539230
C       0.021056158468127     -0.188330918550491      0.046416990458965
C      -0.831253170967102      2.379599571228027     -0.020289646461606
C      -1.727292656898499      1.407979130744934      0.076257154345512
C      -1.407587289810181      0.064664714038372     -0.044309709221125
C       0.886575222015381      0.904336810112000     -0.055047161877155
H      -3.470877647399902     -0.740738749504089      0.816853106021881
H      -3.001572132110596      1.701707482337952      0.240866199135780
H      -1.088643908500671      3.686186075210571     -0.278293550014496
H       3.089536190032959      1.421918988227844     -0.112968161702156
H       4.164063453674316     -0.831316590309143     -0.006826963275671
H       2.538189649581909     -2.787339687347412     -0.022093875333667
H      -0.241630524396896     -2.452287197113037     -0.121088728308678
N       0.471294432878494      2.234101295471191     -0.078446924686432
O      -2.324367046356201     -2.124553442001343     -0.204591602087021
