19
Energy: -531.4422560886353 Ha
C      -3.837608098983765     -1.140501976013184     -0.151745542883873
C      -2.217132568359375      2.459088325500488      0.277222603559494
C       0.662410736083984      0.400719314813614     -0.087550915777683
C       1.629975438117981      1.339614033699036     -0.277653008699417
C       2.967201948165894      0.946018457412720     -0.148906528949738
C      -1.507698178291321      1.492211461067200      0.107276916503906
C       2.263286590576172     -1.362007141113281      0.203705281019211
C       0.949917554855347     -0.949231386184692      0.058580383658409
C      -1.159452080726624     -0.834009885787964     -0.067328073084354
C      -2.630819082260132     -1.062110781669617     -0.078359104692936
C       3.252663135528564     -0.414757847785950      0.114501349627972
H      -4.985903739929199     -1.234690904617310     -0.165521115064621
H       2.484154939651489     -2.382829189300537      0.332780003547668
H       4.266221046447754     -0.745470464229584      0.334127813577652
H       3.816475629806519      1.633866429328918     -0.253146469593048
H       1.503779053688049      2.402324914932251     -0.467761009931564
H      -2.852136373519897      3.230596780776978      0.663936614990234
N      -0.227212578058243     -1.680499672889709      0.068367466330528
N      -0.696939289569855      0.515643656253815     -0.088778316974640
