20
Energy: -602.8540469770029 Ha
C      -3.513228178024292     -0.162141948938370      0.244878649711609
C       3.344650506973267     -0.231599688529968      0.222909927368164
C       1.387061238288879      0.777542352676392     -0.223451286554337
C       0.722852468490601      1.947569012641907     -0.109231710433960
C      -2.711749792098999      1.035059571266174      0.101913020014763
C       0.768230319023132     -0.437562763690948     -0.172991707921028
C      -0.707506656646729     -0.469235718250275     -0.136103302240372
C      -1.532357215881348     -1.587256073951721     -0.202315345406532
C      -2.872825384140015     -1.473743438720703     -0.069853767752647
C      -1.291599988937378      0.900062859058380      0.073640264570713
H      -4.618665218353271     -0.280326426029205      0.225824236869812
H      -3.559026479721069     -2.235807895660400     -0.035405322909355
H      -1.000905632972717     -2.504402160644531     -0.141152232885361
H      -3.249485969543457      2.012806892395020      0.116510204970837
H       1.408146262168884      2.881705760955811     -0.051153175532818
H       4.450114727020264     -0.191987663507462      0.361968487501144
N       2.834306955337524     -1.488335967063904      0.225278958678246
N      -0.580823063850403      2.025592803955078      0.062002360820770
N       2.696842670440674      0.850147962570190     -0.107671238481998
N       1.479481697082520     -1.597998023033142     -0.015747319906950
