20
Energy: -548.8014967967457 Ha
C       3.540501594543457     -0.655168473720551     -0.148611322045326
C      -1.468022465705872     -1.666348814964294      0.185176789760590
C      -2.839613914489746     -1.595982909202576      0.077296823263168
C      -3.439255237579346     -0.347400784492493     -0.163790225982666
C      -2.822479248046875      0.834086596965790     -0.135318711400032
C      -0.745910525321960     -0.420207768678665      0.092539906501770
C       0.760223269462585      1.851355195045471     -0.139777705073357
C       1.372991204261780      0.585481047630310      0.124877616763115
C       2.803067922592163      0.407173782587051      0.574016749858856
C      -1.378696560859680      0.837460756301880     -0.101517297327518
H       2.831514120101929      0.281138002872467      1.684895157814026
H       3.442699193954468      1.233237743377686      0.337816566228867
H       1.214395761489868      2.856859683990479     -0.245790913701057
H      -3.284075975418091      1.862133860588074     -0.210277542471886
H      -4.508784770965576     -0.497927695512772     -0.168349131941795
H      -3.441632509231567     -2.461079120635986     -0.261671125888824
H      -0.820131540298462     -2.554211616516113      0.366627216339111
N      -0.572703719139099      1.886890769004822     -0.185932949185371
N       4.225838184356689     -1.415115475654602     -0.672360360622406
N       0.613891065120697     -0.429324269294739      0.330778151750565
