20
Energy: -589.7386279893803 Ha
C       1.559514403343201      0.755082190036774     -0.127896964550018
C       0.952680408954620     -0.402431011199951     -0.111569352447987
C      -0.495897412300110     -0.373624056577682     -0.200899690389633
C      -1.314239025115967     -1.476235270500183     -0.178845241665840
C      -2.687980890274048     -1.402307271957397     -0.081997931003571
C       1.679687261581421     -1.703792572021484     -0.055284865200520
C      -1.200856566429138      0.844916641712189      0.020707918331027
C      -0.422885328531265      1.962984681129456     -0.024379668757319
C       0.966046512126923      2.077857732772827     -0.120504319667816
C      -3.281093120574951     -0.077553473412991      0.131714537739754
H       3.520083189010620      0.067019909620285      0.202013686299324
H       1.706618905067444      2.887082576751709      0.034946981817484
H      -0.750880658626556      2.976241350173950     -0.042776655405760
H      -4.368391990661621     -0.033777974545956      0.230009421706200
H      -3.242514610290527     -2.305038928985596     -0.180102139711380
H      -0.756226360797882     -2.482910871505737     -0.035920005291700
H       1.052957057952881     -2.504758596420288     -0.453101843595505
N      -2.569809198379517      0.982537090778351      0.286866456270218
O       2.978861093521118      0.927666425704956     -0.000073553157563
O       2.808284282684326     -1.766541838645935      0.341398388147354
