20
Energy: -602.8431559066989 Ha
C       3.373902320861816     -0.155617251992226      0.124833181500435
C      -3.310284614562988     -0.200178846716881      0.078019857406616
C      -1.286455750465393      0.777433872222900     -0.023000745102763
C      -0.657383024692535      2.064848661422729     -0.165915042161942
C       2.678131818771362      0.953243851661682     -0.061728842556477
C      -0.725001215934753     -0.455564439296722     -0.047818973660469
C       0.686643958091736     -0.481372296810150     -0.077685289084911
C       1.474875569343567     -1.628635883331299      0.032274581491947
C       2.797423839569092     -1.439479112625122      0.062331572175026
C       1.276207923889160      0.774430572986603     -0.035756692290306
H       4.423863887786865      0.058021955192089      0.382049053907394
H       3.387057304382324     -2.324279308319092     -0.016354825347662
H       0.879740774631500     -2.499300956726074      0.064906388521194
H       3.083279371261597      1.882725715637207      0.150823831558228
H      -1.137915611267090      3.034108400344849     -0.008188690990210
H      -4.362629413604736      0.015494961291552      0.221702039241791
N      -2.758682489395142     -1.535349249839783     -0.010858823545277
N       0.629534423351288      2.008415937423706     -0.064290210604668
N      -2.681414842605591      0.887636125087738      0.272199869155884
N      -1.492545723915100     -1.563763499259949     -0.212516456842422
