20
Energy: -386.46292892058443 Ha
C      -2.133582830429077     -0.516971409320831      0.934688806533813
C      -0.025500858202577     -0.652067184448242     -0.068439379334450
C       1.063307166099548     -1.456799864768982     -0.090643033385277
C       2.376697301864624     -0.886246323585510     -0.075766578316689
C       2.544945716857910      0.498911052942276      0.066420450806618
C      -1.551253080368042     -1.016059994697571     -0.404988944530487
C       0.184087246656418      0.751048445701599      0.078664474189281
C      -1.194989562034607      1.410730957984924     -0.293250888586044
C      -2.260506391525269      0.292329132556915     -0.375776976346970
C       1.411237955093384      1.405762314796448      0.227787166833878
H       1.064978241920471     -2.658382892608643     -0.241360053420067
H      -2.791074514389038     -1.204446911811829      1.366685152053833
H      -1.429272055625916     -0.011234935373068      1.502658247947693
H      -3.094830513000488      0.485662758350372     -1.019079446792603
H      -1.102478384971619      1.920559763908386     -1.364961624145508
H      -1.580332279205322      2.306324005126953      0.342725604772568
H       1.546039104461670      2.535011529922485      0.330190509557724
H       3.504101514816284      0.989170193672180      0.189920708537102
H       3.232880830764771     -1.445304036140442     -0.291373342275620
H      -1.836669206619263     -1.901182293891907     -0.807576358318329
