21
Energy: -461.48739303497797 Ha
C      -1.848853588104248      1.809935808181763      0.542709052562714
C      -1.880995392799377      0.237389311194420      0.275394290685654
C      -3.440562248229980     -0.093664258718491     -0.323440819978714
C      -0.816892921924591     -0.677674472332001      0.155372574925423
C       0.580196201801300     -0.193509906530380      0.153552442789078
C       1.449650883674622     -1.235815525054932      0.320904493331909
C       2.830584526062012     -1.130028843879700      0.265994966030121
C       3.544297933578491      0.009410386905074     -0.274185836315155
C       2.700333833694458      1.090576767921448     -0.379350930452347
C       1.359367370605469      1.002682209014893     -0.127746820449829
H       3.425215244293213      1.826870441436768     -1.046880006790161
H       4.719869136810303      0.065534003078938     -0.520092070102692
H       3.663686037063599     -1.933778405189514      0.432178199291229
H       1.145521879196167     -2.197829484939575      0.682028889656067
H      -3.245036363601685      2.121267795562744      0.300028234720230
H      -4.043835163116455      0.842007517814636     -0.699299871921539
H      -1.207409858703613      2.060579776763916     -0.613088667392731
H      -1.376284360885620      2.281633853912354      1.495968937873840
H       0.639909565448761      1.898989915847778     -0.300600498914719
H      -1.213714361190796     -1.551729559898376     -0.287995606660843
O      -3.671335220336914     -1.291169285774231     -0.387183517217636
