21
Energy: -569.8758407415905 Ha
C       1.253149151802063      1.990199446678162      0.392618834972382
C       1.741428256034851      0.608526289463043      0.092903792858124
C       3.048284530639648      0.101721897721291      0.050145052373409
C       2.944673538208008     -1.319041728973389     -0.202211722731590
C       1.651945590972900     -1.675248861312866     -0.194171190261841
C      -0.542437791824341     -0.478553831577301      0.002511213067919
C      -1.401010513305664     -0.811090707778931      1.077861666679382
C      -2.759196996688843     -0.526509284973145      1.036610960960388
C      -3.323518753051758     -0.093046814203262     -0.149637982249260
C      -1.191660165786743     -0.003588616382331     -1.108545422554016
H      -0.651132524013519      0.403738290071487     -1.968714833259583
H      -4.334048748016357      0.120237223803997     -0.287577182054520
H      -3.474894762039185     -0.515281796455383      1.904631614685059
H      -0.926835000514984     -1.169288873672485      1.994226932525635
H       2.040620088577271      2.592160940170288      0.814956486225128
H       3.718182086944580     -1.996946811676025     -0.511266946792603
H       3.962369203567505      0.726770043373108      0.125296011567116
H       1.225384473800659     -2.655098199844360     -0.254729896783829
N      -2.540070056915283      0.104612231254578     -1.217864751815796
N       0.887452900409698     -0.557198107242584      0.037041042000055
O       0.184841766953468      2.362700462341309      0.057554133236408
