22
Energy: -536.5560118491894 Ha
C      -2.981977701187134     -1.388447880744934      0.300625652074814
C      -2.478815078735352     -0.115995556116104      0.484322935342789
C      -1.349739670753479      0.300028562545776     -0.371723473072052
C       0.312112867832184      1.778321266174316     -0.114413820207119
C       1.002114653587341      0.555568695068359      0.069045655429363
C       2.424954414367676      0.116149440407753      0.283762782812119
C       2.693974971771240     -1.203226923942566      0.155864298343658
C       1.698216438293457     -2.132202625274658     -0.110713921487331
C       0.257127285003662     -1.840299606323242     -0.306625306606293
C       0.039524856954813     -0.443753451108932     -0.315308690071106
H      -0.313923060894012     -2.479887723922729     -0.788113892078400
H       1.975252032279968     -3.322016954421997     -0.117057949304581
H       4.022709846496582     -1.399670481681824      0.614448428153992
H       2.901975393295288      1.056687474250793      0.300479501485825
H      -1.717681884765625      0.228831812739372     -1.049134731292725
H      -3.578764200210571     -1.586710095405579     -0.913616240024567
H      -1.884619712829590     -0.077909119427204      1.409402728080750
H      -2.415772438049316     -2.086951732635498      0.411447376012802
H      -3.722108125686646     -1.678506374359131      0.940089344978333
H      -3.384338617324829      0.796939373016357      0.108838334679604
O      -1.018388986587524      1.647106170654297     -0.313092321157455
O       0.819928169250488      2.951936721801758      0.142367362976074
