22
Energy: -536.8205507727322 Ha
C       3.213663816452026      1.129116415977478     -0.053590379655361
C       1.891656398773193      0.548343300819397      0.374034017324448
C       1.224356651306152      0.961155533790588      1.413573145866394
C       1.682617306709290     -0.833627104759216     -0.218100354075432
C      -0.735569596290588     -0.635690927505493     -0.036841362714767
C      -0.777783036231995      0.567083537578583     -0.784425318241119
C      -2.051025629043579      1.216148853302002     -0.866510272026062
C      -3.262326478958130      0.716788530349731     -0.256129950284958
C      -3.162748098373413     -0.422390550374985      0.497234791517258
C      -1.960122942924500     -1.074581980705261      0.453093439340591
H      -2.009667158126831     -1.974361777305603      1.044876575469971
H      -3.998793363571167     -0.775053560733795      1.068775534629822
H      -4.237359046936035      1.188120841979980     -0.427325755357742
H      -2.356555938720703      2.079991579055786     -1.525803804397583
H       0.097663521766663      1.194172739982605     -1.037107944488525
H       4.073050022125244      0.338577955961227     -0.207686409354210
H       0.348124414682388      0.613933145999908      1.753577589988708
H       3.579684734344482      1.882927536964417      0.682802796363831
H       3.133670806884766      1.760191202163696     -0.963187098503113
H       1.609082579612732      1.850701808929443      1.765089869499207
O       2.431516885757446     -1.424805760383606     -0.933831810951233
O       0.491581618785858     -1.224353671073914      0.272827059030533
