22
Energy: -645.0257002274461 Ha
C       3.449139356613159      0.380367875099182     -0.126335412263870
C       1.654385089874268     -1.109888076782227      0.764929413795471
C       0.789513647556305     -0.668592453002930     -0.141089722514153
C      -1.647471547126770     -0.549942255020142      0.002913767704740
C      -2.819557428359985     -1.137268066406250     -0.377726465463638
C      -3.993695497512817     -0.317445158958435     -0.426524400711060
C      -4.103185653686523      0.898433387279510      0.158685490489006
C      -2.872300148010254      1.440668225288391      0.702390491962433
C      -1.691061496734619      0.712689757347107      0.637629330158234
C       1.215880274772644      0.512353181838989     -0.902930796146393
H       0.638613462448120      1.010856032371521     -1.711517810821533
H      -0.800941884517670      1.334481954574585      1.026515483856201
H      -2.694923639297485      2.296419143676758      1.410536885261536
H      -5.058051586151123      1.339558005332947      0.036459352821112
H       3.529730319976807     -0.790693521499634      1.379612803459167
H      -2.844835996627808     -2.109671592712402     -0.836351215839386
H       1.484428048133850     -2.049874067306519      1.384296774864197
H      -4.821344852447510     -0.901922643184662     -0.912373065948486
N       2.887706756591797     -0.538390815258026      0.720082163810730
N       2.411402225494385      1.100801348686218     -0.909264266490936
O       4.660749435424805      0.568787693977356      0.003583876648918
O      -0.462789148092270     -1.198073387145996     -0.279153198003769
