22
Energy: -441.64842171953126 Ha
C      -1.988321661949158      0.710979342460632     -1.034733772277832
C      -1.017858982086182     -1.081013321876526      0.200333759188652
C      -1.541657805442810     -0.033435944467783      1.327675342559814
C      -1.328626632690430      1.040277242660522      0.338438719511032
C       0.213655129075050      0.694595217704773     -0.014219380915165
C       1.414389133453369      1.413620829582214      0.197242572903633
C       2.688426017761230      0.698020160198212     -0.025886876508594
C       2.715125560760498     -0.671234607696533     -0.309195816516876
C       1.466246843338013     -1.371007680892944     -0.081424817442894
C       0.363483488559723     -0.724299788475037     -0.195038244128227
H       3.680609226226807     -1.229810476303101     -0.078052476048470
H       3.671433210372925      1.485150098800659     -0.130343630909920
H       1.485895872116089      2.573685169219971      0.387127339839935
H      -1.665613055229187      2.086199998855591      0.531358480453491
H      -2.484261989593506     -0.425279378890991      1.767428755760193
H      -2.939555644989014      1.266819119453430     -1.200737714767456
H      -1.110712885856628     -2.104146718978882      0.682490587234497
H      -3.071806669235229     -0.881344974040985      0.157236635684967
H      -1.391124129295349      1.352362275123596     -1.740769267082214
H       1.557508587837219     -2.448889017105103      0.036561034619808
H      -0.504503607749939     -0.037903197109699      2.035744190216064
N      -2.162433385848999     -0.813693106174469     -0.695313274860382
