23
Energy: -570.828928677481 Ha
C       3.147296428680420     -0.133330538868904      0.004281023051590
C       2.482198715209961      1.217024922370911      0.489530205726624
C       1.099427342414856      1.316020607948303     -0.119221545755863
C       0.285896271467209      0.077001884579659     -0.069473423063755
C      -1.257618784904480      0.039330866187811     -0.042073976248503
C      -1.895323753356934      1.155004739761353     -0.179651245474815
C      -3.315988779067993      1.233183860778809     -0.127590492367744
C      -4.010040760040283     -0.083254069089890      0.080213509500027
C      -3.228257894515991     -1.262600421905518      0.228265687823296
C      -1.918548345565796     -1.230385422706604      0.171920865774155
H      -1.313923954963684     -2.060629367828369      0.069933474063873
H      -3.921943902969360     -2.180654048919678      0.374272882938385
H      -5.336369991302490      0.025857498869300     -0.323218613862991
H      -3.584870100021362      2.017370700836182     -0.092578157782555
H      -1.562036514282227      1.918073415756226     -0.315864890813828
H       3.378679275512695      1.977284669876099      0.102630913257599
H       0.769627809524536      2.193015813827515      0.305874615907669
H       1.340293765068054      1.934264183044434     -1.109272599220276
H       2.192780256271362      1.049273967742920      1.556572675704956
H       2.643535614013672     -2.286236524581909     -0.448691666126251
N       2.290263175964355     -1.177832245826721     -0.217050716280937
N       0.885296642780304     -1.177356958389282     -0.141403555870056
O       4.353883743286133     -0.258659124374390     -0.028460310772061
