23
Energy: -571.1043168714541 Ha
C       3.187667846679688     -0.134260803461075      0.015581659972668
C       2.560700654983521      1.251555800437927      0.228410035371780
C       1.071690082550049      1.366314649581909     -0.160662412643433
C       0.284674435853958      0.069112882018089     -0.158345937728882
C      -1.200983285903931      0.046386640518904     -0.043521676212549
C      -1.975712895393372      1.198326468467712     -0.145482614636421
C      -3.350977897644043      1.134436130523682      0.027734896168113
C      -4.004198074340820     -0.108074903488159      0.127251237630844
C      -3.232915639877319     -1.264659881591797      0.035534024238586
C      -1.847196578979492     -1.186513423919678      0.025073926895857
H      -1.337237000465393     -2.092527627944946      0.005263071507215
H      -3.703893423080444     -2.242462396621704      0.023640042170882
H      -5.058997631072998     -0.242259114980698      0.482905864715576
H      -3.893622398376465      2.017392873764038      0.193175286054611
H      -1.428326725959778      2.152554273605347     -0.221066147089005
H       2.545759677886963      1.352008104324341      1.323375344276428
H       0.975327491760254      1.736899495124817     -1.244407534599304
H       0.648583292961121      2.150881290435791      0.407815039157867
H       3.202841043472290      2.002245664596558     -0.190010443329811
H       2.524971485137939     -2.125193119049072     -0.091382779181004
N       2.202573299407959     -1.202326893806458     -0.074233889579773
N       0.876455247402191     -1.107989311218262     -0.083622008562088
O       4.376862525939941     -0.346633404493332      0.088280580937862
