23
Energy: -611.8138797973912 Ha
C       3.382520675659180      0.652910172939301      0.239170238375664
C       2.250155448913574     -0.440418213605881     -0.053723517805338
C       0.846927821636200      0.121691845357418      0.108654685318470
C      -0.305329859256744     -0.882476687431335     -0.309753745794296
C      -1.614916443824768     -0.449568420648575     -0.353919684886932
C      -2.346258163452148     -0.622514009475708      0.933015167713165
C      -3.698640346527100     -0.182125583291054      1.216021895408630
C      -4.289824962615967      0.440152883529663      0.250838845968246
C      -3.677770137786865      0.757455706596375     -1.014664649963379
C      -2.272994995117188      0.287455707788467     -1.167058706283569
H      -1.614794850349426      0.351632773876190     -1.981123566627502
H      -4.056139945983887      1.470844984054565     -1.817812561988831
H      -5.338565349578857      0.991694271564484      0.683392703533173
H      -4.007341384887695     -0.328604698181152      2.047908067703247
H      -1.608917713165283     -1.012866616249084      2.048944473266602
H       0.622159719467163      0.080363266170025      1.322611093521118
H       0.036521993577480     -1.112101674079895     -1.614543795585632
H       0.494869530200958      1.108237981796265     -0.521076798439026
H       4.278856277465820     -0.794953465461731     -0.056530945003033
H      -0.024656521156430     -1.680045247077942     -0.078459605574608
O       3.125830650329590      1.769292116165161      0.485220015048981
O       4.521575450897217      0.099646829068661     -0.035687681287527
O       2.549443483352661     -1.515136599540710     -0.340131461620331
