23
Energy: -516.8203535433349 Ha
C       1.546823263168335     -1.086683392524719     -0.340673536062241
C       2.616540670394897     -0.065620414912701     -0.307800948619843
C       3.786787033081055     -0.333279013633728      0.264634042978287
C       4.875764369964600      0.581416726112366      0.347746461629868
C       5.812822341918945      1.353191018104553      0.428083062171936
C      -3.380543708801270     -0.045527677983046      0.226815685629845
C      -2.010914325714111     -0.670142889022827      0.116694085299969
C      -1.774720191955566     -1.829420089721680     -0.494859814643860
C      -3.393274784088135      1.284713983535767     -0.399957567453384
C      -3.416959285736084      2.371142387390137     -0.922682940959930
H      -3.405299186706543      3.377742052078247     -1.354096174240112
H      -0.798970639705658     -2.254282712936401     -0.537046134471893
H      -2.583335399627686     -2.383736610412598     -0.969560205936432
H      -1.222029566764832     -0.102762006223202      0.627270877361298
H      -4.086369514465332     -0.690594077110291     -0.340499311685562
H       2.398367643356323      0.896561622619629     -0.766990244388580
H      -4.612371444702148      0.572360754013062      1.737565279006958
H       6.622360229492188      2.012576580047607      0.480539232492447
H       3.910867214202881     -1.261333107948303      0.671502828598022
H       1.838786363601685     -2.055153608322144      0.148333728313446
H      -3.819250106811523     -0.834520280361176      2.056966066360474
N      -3.716295003890991      0.095618471503258      1.644103050231934
O       0.474669963121414     -0.913116514682770     -0.846337318420410
