24
Energy: -646.1563098659921 Ha
C       0.017447663471103      2.768454551696777      0.459127694368362
C      -0.591675698757172      0.628065645694733     -0.354394674301147
C      -2.026919603347778      0.638818323612213     -0.375034451484680
C      -2.735303640365601     -0.396391361951828     -0.004034693818539
C      -2.068636894226074     -1.621833086013794      0.670957267284393
C      -0.631701827049255     -1.792700290679932      0.397530466318130
C       0.018364360556006     -0.632969319820404     -0.021009994670749
C       1.459317684173584     -0.621776282787323     -0.046554692089558
C       2.500485420227051     -1.430206418037415     -0.570406615734100
C       3.326413154602051      0.233853250741959      0.329795062541962
H       3.820208311080933      1.063742280006409      0.789551436901093
H       2.257904052734375     -2.215417385101318     -1.298215508460999
H       0.007287409622222     -2.615978717803955      0.899042606353760
H      -2.705406904220581     -2.471651554107666      0.929098367691040
H      -4.565567016601562      0.647233545780182     -0.642224788665771
H      -1.077823996543884      2.918876647949219      0.584181845188141
H      -2.376617908477783      1.518328785896301     -1.078647732734680
H       0.206179946660995      2.412413835525513      1.443439722061157
H       0.728975594043732      3.632098913192749      0.233413875102997
H      -4.841455459594727     -0.921373009681702      0.279938727617264
N      -4.111263751983643     -0.293901443481445     -0.277233451604843
N       3.623455047607422     -0.789249300956726     -0.467607468366623
O       0.027467342093587      1.741508603096008     -0.521067082881927
O       2.016811847686768      0.380227833986282      0.540874063968658
