24
Energy: -645.8588735669492 Ha
C       3.366415977478027     -2.438862562179565      0.134090974926949
C       3.187702655792236     -0.890542924404144     -0.062838628888130
C       1.305048108100891      0.518550574779510     -0.045147091150284
C      -0.014892678707838      0.986310303211212     -0.070716202259064
C      -1.269926667213440      0.223505735397339     -0.036619152873755
C      -2.388225793838501      0.807594835758209      0.078400976955891
C      -3.740562438964844      0.148992314934731      0.022565532475710
C      -3.658588409423828     -1.186027407646179      0.061413135379553
C      -2.385125875473022     -1.816177606582642     -0.029483485966921
C      -1.340595483779907     -1.198407173156738     -0.009518958628178
H      -0.318808108568192     -1.443325757980347     -0.470467031002045
H      -2.495540857315063     -2.935429096221924     -0.269398480653763
H      -5.014058113098145     -1.715923428535461     -0.042676739394665
H      -4.559284210205078      0.800504803657532      0.150875896215439
H      -2.144592523574829      2.181281089782715     -0.114324323832989
H       4.196434974670410     -2.573171377182007     -0.017285767942667
H       3.684403181076050     -0.762782752513885     -0.710786700248718
H       2.721076726913452     -2.991007804870605     -0.575837671756744
H       2.651228904724121     -2.597104549407959      0.893809735774994
H       3.711376190185547     -0.323487758636475      0.800047934055328
N       2.155492782592773      1.445149898529053     -0.022144891321659
N      -0.001821430400014      2.267618894577026      0.063440643250942
O       1.731265068054199     -0.716066718101501     -0.016630418598652
O       1.284306049346924      2.646247863769531     -0.006608311086893
