24
Energy: -605.3044936167479 Ha
C      -4.312078475952148     -1.135872483253479      0.329677075147629
C      -2.126906871795654     -0.235141023993492     -0.259409874677658
C      -2.501489877700806      1.117417454719543     -0.429683297872543
C      -1.527080297470093      2.070387125015259      0.014073078520596
C      -0.102151542901993      0.438117623329163      0.162365794181824
C       1.400368571281433      0.143148586153984      0.259531408548355
C       1.815582156181335     -1.250866770744324      0.278959870338440
C       3.190815687179565     -1.582843422889709      0.054230924695730
C       3.715891122817993      0.586480200290680     -0.178051546216011
C       2.440539360046387      1.102468729019165      0.120343118906021
H       2.364665746688843      2.214715719223022      0.270445972681046
H       4.562733650207520      1.309484839439392     -0.386882871389389
H       3.514620780944824     -2.589920282363892      0.109207369387150
H       1.045987844467163     -1.940751552581787      0.234279006719589
H      -1.908320903778076      3.076952695846558      0.319569349288940
H      -4.201914787292480     -1.727397203445435      1.237733840942383
H      -2.692571163177490     -2.065749883651733     -0.395354717969894
H      -5.252616882324219     -1.523192763328552     -0.126113235950470
H      -4.592803478240967     -0.109845027327538      0.687490820884705
H      -3.490323543548584      1.452379584312439     -0.943178296089172
N      -0.875492036342621     -0.649797201156616     -0.020754763856530
N      -3.097718000411987     -1.222665309906006     -0.402405023574829
N      -0.302784353494644      1.771517872810364      0.286763638257980
N       4.088795185089111     -0.701405704021454     -0.309234768152237
