24
Energy: -605.0753163226989 Ha
C      -4.494006633758545     -1.214654803276062      0.002689783461392
C      -2.199179172515869     -0.211064219474792      0.109376460313797
C      -2.702418327331543      1.101295113563538      0.195128694176674
C      -1.649518609046936      2.133703947067261      0.143031910061836
C       0.114157661795616      0.563335180282593      0.063604906201363
C       1.576311469078064      0.228715777397156      0.249227359890938
C       1.745784401893616     -1.131984114646912     -0.029241712763906
C       2.947369098663330     -1.672861456871033      0.027405384927988
C       3.912023305892944      0.505657136440277     -0.253896921873093
C       2.706930398941040      1.122525215148926     -0.116510890424252
H       2.749222278594971      2.320078611373901     -0.588542282581329
H       4.913085937500000      1.133281707763672     -0.292787671089172
H       3.335679769515991     -2.659181118011475      0.204081758856773
H       0.942775487899780     -1.889292716979980      0.175917893648148
H      -1.765081524848938      3.375785589218140     -0.537425935268402
H      -5.043404579162598     -0.344120740890503     -0.605326712131500
H      -2.591376543045044     -2.277833461761475      0.380483478307724
H      -4.571407318115234     -1.166588425636292      1.254514813423157
H      -4.937202453613281     -2.128375530242920     -0.577223420143127
H      -3.823037385940552      1.391757488250732     -0.109333127737045
N      -0.850032567977905     -0.461436897516251      0.008345188573003
N      -3.013216733932495     -1.298434853553772     -0.433618903160095
N      -0.309308886528015      1.830434441566467      0.046872671693563
N       4.036276340484619     -0.971065163612366      0.142794102430344
