24
Energy: -551.187220836752 Ha
C       3.041880607604980      1.572878122329712      0.099385760724545
C       3.795638322830200     -0.858221948146820     -0.077090218663216
C       1.352625489234924     -0.096673741936684     -0.081426322460175
C       0.925352394580841     -1.479244112968445      0.182081148028374
C      -0.449110597372055     -1.712676167488098      0.018978213891387
C      -1.419995069503784     -0.727234005928040     -0.091573819518089
C      -3.636408567428589     -0.268006235361099     -0.007584657520056
C      -2.051318883895874      1.533856272697449     -0.014018721878529
C      -0.963364481925964      0.625940561294556     -0.024684051051736
C       0.440526664257050      0.946146965026855      0.014116878621280
H       0.697837889194489      2.037871360778809      0.156678125262260
H      -2.032031536102295      2.663512229919434      0.000768309982959
H      -4.682892322540283     -0.506588816642761      0.156766444444656
H      -0.839503943920135     -2.721183538436890      0.194780677556992
H       1.778397798538208     -2.137561321258545      0.098486587405205
H       4.137391090393066      1.836328387260437      0.049029190093279
H       3.416673660278320     -1.552340388298035      0.715944409370422
H       4.694629192352295     -0.351117044687271      0.167173206806183
H       2.549974679946899      2.303853988647461     -0.673688173294067
H       2.579572200775146      1.817564606666565      1.196268677711487
H       4.103094100952148     -1.345268368721008     -1.136201977729797
N      -2.694868803024292     -1.180976152420044     -0.001984941074625
N       2.738223075866699      0.185678958892822     -0.108389511704445
N      -3.274511337280273      1.100202202796936     -0.037498511373997
