25
Energy: -572.2940707668134 Ha
C       2.967946052551270     -1.671454071998596      0.077676162123680
C       2.547007083892822     -0.220354661345482      0.160770013928413
C       1.031762242317200     -0.097953118383884     -0.005294632632285
C      -0.998881101608276     -0.761591672897339      0.119479477405548
C      -2.031028270721436     -1.608589768409729      0.312757253646851
C      -3.232505559921265     -0.976680099964142     -0.057223975658417
C      -3.431547403335571      0.368879139423370     -0.290979772806168
C      -2.357751131057739      1.256859540939331     -0.264907479286194
C      -1.106767177581787      0.565929174423218     -0.068963974714279
C       0.697611331939697      2.325734376907349      0.605590403079987
H      -0.121652342379093      3.029738664627075      0.628627836704254
H       1.080731630325317      2.250564336776733      1.631173491477966
H       1.601293802261353      2.681566953659058      0.055124580860138
H      -2.447410583496094      2.326341629028320     -0.293877691030502
H      -4.431396007537842      0.713810145854950     -0.740169525146484
H      -4.060142993927002     -1.612040638923645     -0.159004300832748
H       4.096530914306641     -1.771186828613281      0.137859717011452
H       3.105924367904663      0.375919759273529     -1.586527705192566
H       2.789042472839355      0.209397718310356      1.102895140647888
H       2.505724430084229     -2.088522434234619     -0.918230414390564
H       2.454514026641846     -2.124498605728149      1.025271296501160
H      -2.030374526977539     -2.737883567810059      0.512645304203033
N       0.305583208799362      1.017383694648743     -0.001372632803395
N       0.324539810419083     -1.225768685340881      0.053013321012259
O       3.316409826278687      0.640101730823517     -0.661336660385132
