25
Energy: -626.2474894296978 Ha
C      -3.779192686080933     -0.996605515480042     -0.239211589097977
C      -3.082934141159058      0.287170380353928      0.646284878253937
C      -0.788385391235352      1.162658929824829     -0.092446424067020
C       0.130025476217270      2.347764015197754     -0.112633436918259
C       1.964543461799622      0.860881686210632      0.056153044104576
C       3.299095392227173      0.408183842897415     -0.196605801582336
C       3.449016332626343     -0.992602467536926     -0.012436976656318
C       2.645038127899170     -2.032975435256958      0.303653120994568
C       1.262482523918152     -1.696709036827087      0.026627186685801
C       1.015385866165161     -0.230061143636703      0.073837153613567
H       0.566940128803253     -2.654577255249023     -0.011300550773740
H       2.950234174728394     -3.019416093826294      0.484789967536926
H       4.570318698883057     -1.217539072036743      0.102248586714268
H       4.242525100708008      1.026730418205261     -0.552221715450287
H      -0.135273382067680      3.332062005996704     -0.413430601358414
H      -3.802149772644043     -0.459040641784668     -1.346606254577637
H      -2.208534240722656     -0.118188165128231      1.395104885101318
H      -3.911046743392944      0.698409020900726      1.107315778732300
H      -4.931666851043701     -1.112791776657104      0.228887110948563
H      -1.817382216453552     -1.366640090942383     -0.686385452747345
H      -2.480886220932007      2.185121774673462      0.481377720832825
N      -0.315346330404282     -0.036001022905111      0.077804990112782
N      -2.223769187927246      1.304148554801941     -0.038119442760944
N       1.415827512741089      2.178607940673828     -0.096852064132690
O      -2.733814001083374     -2.015956401824951     -0.388617604970932
