25
Energy: -613.000822009256 Ha
C       3.964190959930420     -0.504315018653870      0.763707518577576
C       2.500806808471680     -0.440792083740234      0.380869746208191
C       1.661568522453308     -1.634954094886780      0.383001953363419
C       0.463643908500671     -1.639298081398010     -0.388831228017807
C      -0.151337355375290     -0.372320979833603     -0.868128657341003
C      -2.347297430038452     -0.886976122856140     -0.596960246562958
C      -3.047752380371094      0.340214580297470      0.253837674856186
C       0.741555988788605      0.683575093746185     -0.902795016765594
C       1.957797169685364      0.742754876613617     -0.003634503809735
C       2.556380748748779      2.147836923599243     -0.057373285293579
H       3.330036163330078      2.716376304626465     -0.576223790645599
H       1.530220270156860      2.843048810958862      0.058389112353325
H       3.095751047134399      2.292762279510498      0.937061011791229
H       0.614290773868561      1.788904547691345     -1.549850225448608
H      -3.663351535797119      0.525581836700439      2.045147180557251
H      -3.386272192001343     -1.284896492958069     -1.083931207656860
H       4.625545501708984     -0.717380881309509     -0.402858018875122
H      -0.055929426103830     -2.575407743453979     -0.214992597699165
H       2.181839942932129     -2.484173536300659      0.947319865226746
H       4.169549465179443      0.785113334655762      1.285384178161621
H       3.911975860595703     -1.550049304962158      1.823613047599792
H      -2.163657188415527     -1.514778375625610      0.344103604555130
O      -3.662344217300415     -0.222939655184746      1.498298048973083
O      -1.412762522697449     -0.335524201393127     -1.491206049919128
O      -2.923310995101929      1.628532409667969      0.318492203950882
