26
Energy: -647.3431560356329 Ha
C       3.607498407363892      0.997971653938293      0.270580947399139
C       2.206035614013672      1.278650760650635     -0.158645823597908
C       1.457423806190491     -1.016388654708862      0.208775892853737
C      -0.664238631725311     -1.761663794517517     -1.128867030143738
C      -1.548458576202393     -0.553884983062744     -0.492760121822357
C      -1.504449129104614     -0.551998436450958      0.963823139667511
C      -2.579974174499512      0.072091698646545      1.628982424736023
C      -3.440856695175171      0.880466938018799      0.794664800167084
C      -3.047679424285889      1.228152871131897     -0.472781896591187
C      -2.107584714889526      0.416302084922791     -1.314894318580627
H      -1.596233487129211      0.642934262752533     -2.418021202087402
H      -3.242419242858887      2.283196926116943     -0.954307198524475
H      -4.137944221496582      1.458759188652039      1.168157696723938
H      -2.444573163986206     -0.006101709324867      2.777911663055420
H      -0.593570351600647     -1.120649814605713      1.403293609619141
H      -0.621960639953613     -1.774314045906067     -2.395543098449707
H       4.036584854125977      0.326143115758896     -0.490610778331757
H       0.753379225730896     -2.771235942840576      0.084142811596394
H       0.435248315334320      0.548152387142181     -0.655167818069458
H       4.109936714172363      2.120786190032959      0.495232850313187
H       3.401791572570801      0.310180097818375      1.237413167953491
H      -1.415331602096558     -2.762863397598267     -0.917867243289948
N       1.301296830177307      0.156837135553360     -0.589504599571228
N       0.659142017364502     -1.936883449554443     -0.538705289363861
O       1.827371835708618      2.378742694854736     -0.266103476285934
O       2.338343381881714     -1.470350742340088      1.112299323081970
