26
Energy: -593.4198174021803 Ha
C       2.583302259445190     -0.463747709989548      0.075793728232384
C       2.074508428573608      0.104212500154972     -1.130604386329651
C       1.048928260803223      0.999174177646637     -1.158067345619202
C       0.495843559503555      1.371728062629700      0.081823334097862
C      -0.772761642932892      2.146978378295898      0.056470897048712
C      -2.012120246887207      1.324259400367737     -0.424252688884735
C      -2.547439813613892      0.232639551162720      0.526628732681274
C      -2.377797365188599     -1.179297566413879      0.024552885442972
C       1.014585494995117      0.862097561359406      1.269927144050598
C       2.039987802505493     -0.109530247747898      1.316089272499084
H       2.366827964782715     -0.624951303005219      2.261062622070312
H       0.546922862529755      1.071803689002991      2.242035865783691
H      -0.619114458560944     -0.594442605972290     -0.756222665309906
H      -3.628804683685303      0.281004518270493      0.690205812454224
H      -1.962646365165710      0.241042599081993      1.496427297592163
H      -2.751880407333374      2.060781717300415     -0.869244337081909
H       2.357342004776001     -0.421906173229218     -2.013319253921509
H      -0.742566883563995      3.079257726669312     -0.477823644876480
H      -0.992321133613586      2.371572494506836      1.099101424217224
H       0.566536366939545      1.283884644508362     -2.132387876510620
H       3.756607294082642     -1.877010345458984      0.787607669830322
H       3.483138561248779     -1.980460524559021     -0.893971741199493
H      -1.628024697303772      0.764400064945221     -1.350933551788330
N       3.612508773803711     -1.354128479957581     -0.049378708004951
O      -1.199094057083130     -1.452225565910339     -0.615460932254791
O      -3.216130733489990     -2.036169528961182      0.169578894972801
