26
Energy: -688.0550304491164 Ha
C       4.048815727233887     -0.497480154037476      0.539981782436371
C       2.366447687149048     -1.181843042373657     -0.777700603008270
C       0.155404835939407     -0.199266940355301      0.088714867830276
C      -1.024299860000610     -1.010222673416138      0.212854340672493
C      -2.340225219726562     -0.292132049798965      0.158998250961304
C      -4.800585269927979     -0.934315323829651     -0.149671420454979
C      -2.517069816589355      0.952330946922302     -0.236704900860786
C      -1.333137154579163      1.783018469810486     -0.112487018108368
C      -0.035922396928072      1.269487977027893      0.043236777186394
C       1.079016566276550      2.256843805313110      0.118895828723907
H       0.444018006324768      3.341698884963989      0.855179607868195
H      -1.222380399703979      2.922364950180054      0.073988668620586
H      -3.585507631301880      1.426570773124695     -0.426362782716751
H      -4.660649776458740     -0.384102702140808     -1.108700394630432
H      -5.398242473602295     -0.336634397506714      0.658805251121521
H      -5.259509086608887     -1.980926275253296     -0.454147338867188
H       5.420351982116699     -0.728266060352325      0.205888018012047
H       2.641111850738525     -0.345029532909393     -1.315959692001343
H       2.083549022674561     -1.974978923797607     -1.367173790931702
H       3.659094810485840     -0.971209704875946      1.919533371925354
H       3.535815954208374      1.008072137832642      0.433315813541412
H      -0.835314750671387     -2.195939540863037      0.188255369663239
O      -3.454282760620117     -1.026043057441711      0.343054682016373
O       3.503275632858276     -1.745812773704529     -0.176779210567474
O       1.380786180496216     -0.764854133129120      0.286472231149673
O       2.268594980239868      1.954191923141479     -0.325163841247559
