27
Energy: -668.5524559329823 Ha
C       0.082654364407063      1.808731079101562      0.201892688870430
C       1.397390961647034      1.425468921661377     -0.529776096343994
C       2.168371915817261     -0.545100331306458      0.860615551471710
C       1.779519677162170     -1.573469996452332     -0.131130769848824
C      -1.020905017852783      0.747136533260345      0.164056897163391
C      -1.542892456054688      0.410860121250153     -1.079289793968201
C      -2.530472278594971     -0.528667151927948     -1.183353543281555
C      -2.935493469238281     -1.203191041946411     -0.068905569612980
C      -2.365112543106079     -0.918681204319000      1.148949146270752
C      -1.397280812263489      0.058150548487902      1.297680139541626
H      -0.979978144168854      0.350281953811646      2.326216459274292
H      -2.662962913513184     -1.483015418052673      2.053122997283936
H      -3.711949110031128     -1.921821951866150     -0.192184761166573
H      -2.746966838836670     -0.848904728889465     -2.214344024658203
H      -1.239584326744080      0.878178715705872     -1.950146913528442
H      -0.194526478648186     -1.433638453483582      0.159291550517082
H       1.834671974182129      2.415857553482056     -0.874769687652588
H       1.468155980110168     -0.411106139421463      1.687476634979248
H       2.888783216476440      1.370492815971375      1.065724015235901
H       1.287171840667725      0.759870231151581     -1.367970943450928
H       0.404108285903931      1.889597177505493      1.296613931655884
H      -0.258149743080139      3.247006177902222     -1.087749004364014
H       3.079448461532593     -0.817179739475250      1.334603309631348
N       2.446810483932495      0.751685678958893      0.329454034566879
O       0.522710502147675     -2.088054895401001      0.114578150212765
O      -0.252316981554031      3.127305746078491     -0.111789807677269
O       2.465784549713135     -1.957356333732605     -1.081099987030029
