27
Energy: -573.4667064118261 Ha
C      -1.091613173484802      1.922016024589539      0.375810325145721
C       1.642934083938599      0.563999295234680     -1.093149065971375
C       2.587488889694214     -0.666222691535950      1.094824433326721
C       1.513212323188782     -1.240738153457642      0.395629584789276
C       0.994106769561768     -0.582780778408051     -0.700254440307617
C       3.068496227264404      0.576955080032349      0.592790484428406
C      -1.468691706657410     -1.022861242294312     -0.693896293640137
C      -1.516414046287537     -1.208150267601013      0.819265365600586
C      -2.384216070175171      0.106780692934990      1.358554244041443
C      -2.233086585998535      0.214713960886002     -0.977622032165527
H      -3.272458076477051     -0.093125119805336     -1.314739346504211
H       1.191414952278137      1.156570553779602     -1.954842805862427
H       3.813511848449707      1.127243995666504      1.167612075805664
H       2.836357355117798     -1.100618839263916      2.070289373397827
H       1.184821486473083     -2.185571193695068      0.736088037490845
H      -1.827842950820923      0.857740163803101     -1.761826634407043
H      -2.026114225387573     -1.854414939880371     -1.170423626899719
H      -3.465389490127563     -0.066584214568138      1.448835134506226
H      -0.524975776672363     -1.081859111785889      1.304650902748108
H      -1.980074405670166      0.459333598613739      2.300633192062378
H      -1.299634099006653      2.649568319320679     -0.401897728443146
H      -0.064996317028999      1.571066617965698      0.265307128429413
H      -1.183312058448792      2.489650487899780      1.271460175514221
H      -1.811328053474426     -2.280016899108887      1.078036069869995
N       2.673198461532593      1.098431348800659     -0.492146998643875
N      -2.275822877883911      0.985854625701904      0.256645649671555
O      -0.128113538026810     -1.027657032012939     -1.302798509597778
