28
Energy: -648.5572850152023 Ha
C       3.894115686416626      1.163366556167603      1.334206581115723
C      -3.746914148330688     -0.230487629771233     -0.125857591629028
C      -0.617249727249146     -1.703373312950134      0.824748039245605
C      -1.488048076629639     -0.824812173843384      0.117516219615936
C      -1.008134961128235     -0.104740880429745     -0.966286778450012
C       0.747511506080627     -1.778312087059021      0.601255536079407
C       1.334405183792114     -0.898773252964020     -0.335043877363205
C       3.297720670700073      0.221548035740852     -0.909402370452881
C       3.143478155136108      1.418277621269226      0.032474357634783
C       0.413086771965027     -0.000318164646160     -1.042952656745911
H      -1.659662127494812      0.690508544445038     -1.544807314872742
H      -3.087454557418823      2.200326681137085      1.326002836227417
H      -4.268389701843262      1.545855283737183     -0.924857378005981
H      -4.623767852783203     -0.756423890590668     -0.481881946325302
H       1.466639041900635     -2.436287164688110      1.155971169471741
H      -0.970723390579224     -2.323162078857422      1.676573514938354
H       0.634168744087219      0.814277589321136     -1.801461696624756
H       1.974089264869690      1.435413002967834      0.260534852743149
H       4.325878620147705     -0.104780420660973     -0.934251427650452
H       3.439462184906006      2.422868967056274     -0.450242191553116
H       3.376127243041992      0.303485959768295      1.971036553382874
H       3.971102714538574      1.970333456993103      2.036699056625366
H       4.870663642883301      0.797585189342499      0.964207112789154
H       3.036731958389282      0.572489500045776     -1.913396954536438
N      -2.834827661514282     -0.893664360046387      0.420169800519943
N      -3.869532823562622      1.129637241363525     -0.105085417628288
O       2.619801282882690     -0.965063750743866     -0.565040767192841
O      -2.791572332382202      1.920245051383972      0.473833143711090
