28
Energy: -689.5979337380378 Ha
C       1.888784646987915      2.687600851058960      0.587674379348755
C      -2.784332752227783     -1.125802636146545     -0.231840148568153
C      -1.340221881866455      0.933944404125214     -0.125951662659645
C       0.593512296676636     -0.290263265371323      0.285138130187988
C       0.956797182559967     -1.671634674072266      0.467248976230621
C      -2.723435163497925      0.342440962791443      0.167291954159737
C       3.216545104980469     -1.283424377441406     -0.417433142662048
C       2.817254066467285      0.050382032990456     -0.587041616439819
C       1.527913451194763      0.539881706237793     -0.290970355272293
C       2.228942394256592     -2.108482599258423      0.106296807527542
H      -1.359026193618774      2.003893852233887      0.075931146740913
H      -0.952179074287415     -1.607460260391235     -0.203220158815384
H      -2.855010271072388     -1.161520957946777     -1.351564645767212
H      -3.736008405685425     -1.570791482925415      0.161673143506050
H      -3.974932670593262      1.763274431228638     -0.215861544013023
H      -2.867926359176636      0.412758439779282      1.249988794326782
H      -0.985412120819092      0.769692540168762     -1.139523625373840
H       3.467923879623413      0.773699700832367     -1.037093639373779
H       2.520840644836426     -3.170280694961548      0.173775851726532
H       4.227150917053223     -1.662817239761353     -0.668763756752014
H       1.644381046295166      3.678820848464966      0.311266005039215
H       2.960226774215698      2.638780355453491      0.543022513389587
H       1.528298616409302      2.287420272827148      1.507287025451660
H       0.246646463871002     -2.352599859237671      0.856836557388306
O      -3.838074922561646      0.902007460594177     -0.532641887664795
O       1.309609413146973      1.882441043853760     -0.442365765571594
O      -0.505230486392975      0.269475758075714      0.822694420814514
O      -1.735745191574097     -1.960264801979065      0.149034023284912
