29
Energy: -628.5236131973764 Ha
C       2.604195594787598      0.409060329198837      0.272950798273087
C      -0.949058890342712      1.556707859039307     -0.903029620647430
C      -2.584963321685791     -0.557502388954163      1.433956861495972
C      -2.247617244720459     -1.529125452041626      0.311577826738358
C      -1.866005659103394     -0.727320015430450     -0.941009759902954
C      -1.868780493736267      1.741526603698730      0.361888885498047
C       0.575069725513458     -0.301222771406174     -0.659869849681854
C       1.068246126174927     -1.547282457351685     -0.485832273960114
C       3.018724918365479     -0.764518201351166      0.484434843063354
C       1.452813625335693      0.648130416870117     -0.419664502143860
H      -1.688675880432129     -0.102440878748894      1.895521044731140
H      -1.338019251823425      1.903718113899231     -1.944288611412048
H       0.115604422986507      2.033580064773560     -1.101190447807312
H      -2.245551109313965      2.794299602508545      0.429557681083679
H      -1.286910176277161      1.373751997947693      1.367381334304810
H      -3.921870470046997      1.218645691871643      0.646886467933655
H      -3.074286937713623     -0.837514758110046      2.217019796371460
H      -2.581335544586182     -0.173250213265419     -1.689562082290649
H      -3.033628702163696     -2.304922819137573      0.219917804002762
H      -1.486720442771912     -1.758236765861511     -1.212355256080627
H       1.040775656700134      1.708525061607361     -0.419281601905823
H       0.279584825038910     -2.269339323043823     -0.857065558433533
H       4.225255489349365     -0.996373116970062      0.600763738155365
H       3.296385049819946      2.271856784820557      1.087422013282776
H      -1.437686443328857     -2.279044628143311      0.290316730737686
N      -3.066292762756348      0.605878531932831      0.410917937755585
N       2.211432456970215     -1.740077495574951      0.117823466658592
N      -0.680447280406952      0.131200820207596     -0.909475624561310
O       3.583560705184937      1.358376026153564      0.550209641456604
