29
Energy: -682.628785817718 Ha
C      -3.677592515945435      0.975588142871857      1.852613806724548
C       1.499509096145630      0.223144501447678     -0.396148979663849
C       3.272727012634277      1.752357125282288      0.105345211923122
C       3.129223585128784     -0.533184587955475      1.051240324974060
C       2.579202175140381     -1.767863869667053      1.007071375846863
C       2.067456722259521      2.356583833694458     -0.400991290807724
C      -1.332051396369934     -0.580028116703033     -1.711334586143494
C      -2.536609411239624      0.184663698077202     -1.051833391189575
C      -3.549454927444458     -0.395268231630325     -0.128725171089172
C       0.841925442218781     -1.157082438468933     -0.216994822025299
H      -1.604450345039368     -1.402749419212341     -2.645709037780762
H       1.932651400566101      3.398225784301758     -0.467480063438416
H       4.459598064422607      1.702957510948181      0.202751651406288
H       3.883691549301147     -0.260069042444229      1.646438241004944
H       2.809788703918457     -2.603498935699463      1.524246811866760
H      -1.254657506942749     -2.091015100479126      0.007020664867014
H      -0.667345046997070     -0.093731343746185     -2.448609113693237
H      -2.890080213546753     -1.156694650650024      0.438492089509964
H      -1.918084502220154      1.288066148757935     -0.789338231086731
H      -4.451481342315674     -0.831979870796204     -0.616550385951996
H      -2.659536123275757      1.288871407508850      1.337058305740356
H      -3.243344068527222      0.440937966108322      2.603880405426025
H      -4.270569801330566      1.788361191749573      2.507857084274292
H      -3.074198007583618      0.523811399936676     -2.331499576568604
N       1.076549768447876      1.430973410606384     -0.730538129806519
N      -0.466858804225922     -1.465936899185181     -0.831164538860321
N       1.436872482299805     -2.028742790222168      0.401593655347824
N       2.801429986953735      0.378622680902481      0.072909757494926
O      -4.344244003295898      0.431328892707825      0.747547566890717
