29
Energy: -574.6748696984549 Ha
C       2.299939870834351      1.820155143737793      1.120954871177673
C      -0.770694911479950     -1.010145306587219      0.136011585593224
C      -2.977029323577881     -0.175598755478859      1.216881036758423
C      -3.262429475784302      0.850918531417847      0.073988057672977
C      -2.245026826858521      0.659719467163086     -1.143986701965332
C      -2.182126283645630     -1.413709163665771      0.663657546043396
C       1.479698181152344      0.464309424161911     -0.805664062500000
C       2.452645540237427     -1.540487408638000     -0.175880521535873
C       2.714533805847168     -0.634758532047272      0.773235440254211
C      -0.804435133934021      0.277754127979279     -0.627414584159851
H      -3.133190155029297      1.861785888671875      0.459194868803024
H      -0.442085981369019     -1.831911087036133     -0.566703855991364
H      -0.010464171878994     -0.873950183391571      0.920682013034821
H      -2.846889495849609     -1.889313220977783     -0.031121753156185
H      -1.995578765869141     -2.107709407806396      1.499889969825745
H      -3.862770557403564     -0.580572247505188      1.645422697067261
H      -2.425035238265991      0.222373828291893      2.103198766708374
H      -4.276130676269531      0.764418005943298     -0.353266984224319
H       2.896375417709351     -2.507311820983887     -0.429277867078781
H      -2.133757114410400      1.484362244606018     -1.826526641845703
H       2.171066284179688      1.064787030220032     -1.494312047958374
H       3.395541906356812     -0.701740801334381      1.600791215896606
H       2.338590621948242      1.645159363746643      2.223243713378906
H       1.425953388214111      2.499748229980469      1.037648558616638
H       3.156274557113647      2.349921226501465      0.723713576793671
H      -2.617471218109131     -0.163291051983833     -1.696397781372070
N       0.142806738615036      0.968894600868225     -1.095281124114990
N       2.043229341506958      0.555664062500000      0.493517875671387
O       1.603358268737793     -0.962201535701752     -1.124316453933716
