29
Energy: -669.7185836385152 Ha
C       1.052221536636353      2.733227491378784      0.294406116008759
C      -3.375768661499023     -0.491914600133896      0.044949218630791
C      -1.378927826881409      0.352572172880173      1.307743310928345
C       1.007407665252686     -0.377317577600479      0.851006627082825
C       1.682616472244263     -1.650368094444275      0.845498502254486
C      -1.834970355033875     -0.221124023199081     -0.062136732041836
C       3.165796279907227     -1.022779703140259     -1.032965064048767
C       2.458059787750244      0.152044013142586     -1.055490374565125
C       1.370459198951721      0.475914508104324     -0.191149681806564
C       2.712821483612061     -1.922600507736206     -0.029912477359176
H      -2.057919740676880      0.055101443082094      2.117901086807251
H      -3.672792196273804     -0.697725117206573     -1.768514275550842
H      -3.509841918945312     -1.046499371528625      1.055224895477295
H      -3.862812519073486      0.546812534332275      0.160884812474251
H      -0.874452888965607      1.084753513336182     -1.075203061103821
H      -1.371349573135376     -1.280704021453857     -0.231918528676033
H      -1.624452829360962      1.428421258926392      1.266147494316101
H       3.951371431350708     -1.078867435455322     -1.741232752799988
H       1.354592800140381     -2.310741424560547      1.709508657455444
H       3.164059400558472     -2.953500270843506      0.099346362054348
H       2.655116796493530      0.738359451293945     -1.959073066711426
H       0.695271551609039      2.538066625595093      1.345504283905029
H       2.100614309310913      2.934921741485596      0.220055744051933
H       0.537643730640411      3.671961545944214     -0.099290855228901
H      -0.079264976084232     -0.809030950069427      2.341496706008911
N      -0.050807107239962      0.007962524890900      1.681003451347351
O      -1.778845429420471      0.748828947544098     -1.053474664688110
O       0.802224099636078      1.657374262809753     -0.496497839689255
O      -3.799432039260864     -1.286576867103577     -1.079972267150879
