30
Energy: -554.850051902682 Ha
C       2.592821121215820      2.120031595230103     -0.443920463323593
C      -0.927496731281281      1.513277888298035      0.427698343992233
C      -2.967214107513428      0.633756399154663     -0.815638899803162
C      -2.593977451324463     -0.686894118785858     -0.185385525226593
C      -1.878515958786011     -0.633696734905243      1.160480380058289
C      -1.599893450737000      1.370553374290466     -0.916660785675049
C       0.271800100803375     -1.910569190979004     -0.210432350635529
C       1.763144969940186     -0.348467260599136      0.169723063707352
C       2.484202384948730      0.925609350204468      0.555346846580505
C      -0.559856951236725      0.128886237740517      1.108281135559082
H      -1.907274246215820     -1.069543123245239     -0.958898603916168
H      -1.564743161201477      2.090526342391968      1.102537870407104
H      -0.036575712263584      2.060794353485107      0.231719672679901
H      -1.787955880165100      2.415241718292236     -1.296508550643921
H      -0.863251328468323      0.869964063167572     -1.554506063461304
H      -3.679462194442749      1.219845414161682     -0.264913916587830
H      -3.340611219406128      0.392048567533493     -1.823331594467163
H      -3.364444017410278     -1.425185084342957     -0.128006175160408
H       3.515256166458130      0.550972223281860      0.788459181785583
H      -1.738583564758301     -1.705010175704956      1.394680380821228
H      -0.142396435141563      0.292153716087341      2.230530261993408
H      -0.590300679206848     -2.485544443130493      0.080180980265141
H       2.115113258361816      1.359613656997681      1.468485355377197
H       1.662294983863831      2.640002489089966     -0.586856961250305
H       2.920758962631226      1.617815136909485     -1.435355424880981
H       3.358698368072510      2.779886007308960     -0.000551911536604
H      -2.527265787124634     -0.184347182512283      1.940369248390198
N       1.355955004692078     -2.314774751663208     -0.751772642135620
N       2.273330211639404     -1.339281558990479     -0.507930159568787
N       0.436523258686066     -0.645109236240387      0.361847966909409
