31
Energy: -575.6404355824789 Ha
C      -2.673509359359741     -0.642409324645996     -0.024829907342792
C       2.439885854721069     -1.517382621765137     -0.118557207286358
C       3.375074863433838     -0.399745792150497     -0.355065822601318
C       2.705257415771484      0.891990005970001     -0.656175553798676
C       1.854939460754395      1.283477187156677      0.542752385139465
C       1.447091341018677     -1.098185181617737      1.042292833328247
C      -0.984903931617737      1.088560938835144     -1.005652070045471
C      -1.616567254066467      1.755271911621094      0.174863934516907
C      -2.642022848129272      0.797924280166626      0.616465151309967
C       0.684873700141907      0.171440482139587      0.742891967296600
H       3.415866613388062      1.884569287300110     -0.443807870149612
H       2.047913789749146     -1.276240825653076      1.918850660324097
H       0.641927778720856     -1.877605915069580      1.009862661361694
H       1.843614697456360     -1.581069231033325     -1.219084739685059
H       2.768279075622559     -2.570079326629639     -0.021333334967494
H       4.094119548797607     -0.115207105875015      0.430165708065033
H       4.346666812896729     -0.559505105018616     -1.102749466896057
H       2.267760276794434      0.954951345920563     -1.666877627372742
H       1.529842138290405      2.495976209640503      0.509583294391632
H      -2.002068758010864      0.333171069622040     -1.671643018722534
H      -0.238641604781151      0.301722258329391      1.384396910667419
H      -1.648166894912720     -1.865608096122742     -1.267205715179443
H      -0.422602146863937      1.843898892402649     -1.954384207725525
H      -2.223501205444336      2.645430088043213     -0.273989051580429
H      -0.773684442043304      2.024827718734741      0.974198997020721
H      -3.640146255493164      1.071805357933044      0.601262331008911
H      -2.624629974365234      0.822292745113373      1.753145337104797
H       2.314991712570190      1.193009376525879      1.735292315483093
N      -1.276841402053833     -1.150555372238159     -0.142462238669395
N      -0.207599714398384     -0.110263474285603     -0.509055733680725
O      -3.605896234512329     -1.360782265663147     -0.236121416091919
