31
Energy: -521.3874519386585 Ha
C      -3.131412506103516     -0.459880322217941      0.797582209110260
C      -0.900271773338318      1.967989325523376      0.059038616716862
C       2.562649726867676     -0.041393157094717     -0.127445891499519
C       1.263479471206665      0.681044459342957     -0.622870922088623
C       0.281518757343292      1.085020303726196      0.540678381919861
C      -1.647314429283142      1.199441552162170     -1.078573107719421
C      -0.216141566634178     -1.505141854286194      0.304265439510345
C      -1.567569971084595     -1.656033873558044     -0.599136054515839
C      -2.200486183166504     -0.116461753845215     -0.550162732601166
C      -0.053328108042479     -0.307263195514679      1.232021093368530
H       0.555750489234924      0.413165271282196     -1.489125013351440
H      -2.490703582763672      1.841520786285400     -1.855870962142944
H      -0.767598450183868      0.793208181858063     -1.883953690528870
H      -0.585958361625671      3.001626253128052     -0.455270141363144
H      -1.431800961494446      2.418107986450195      0.903191328048706
H       2.204901933670044     -1.897316217422485     -1.257507801055908
H       3.704978942871094     -1.857586383819580     -0.389627546072006
H       1.832861065864563      1.721423268318176     -0.814827024936676
H       0.770667374134064      1.708693861961365      1.351459741592407
H      -1.291300058364868     -2.068774700164795     -1.806423783302307
H      -1.058045148849487     -0.479934126138687      2.139818668365479
H      -0.078796453773975     -2.412956237792969      1.123253464698792
H       1.099584579467773     -1.556233406066895     -0.214199677109718
H      -2.749975681304932     -2.347353458404541      0.211534351110458
H      -2.872250556945801     -0.255988568067551     -1.583656072616577
H      -2.662969112396240     -0.722615242004395      1.757624745368958
H      -4.375113487243652     -1.071643710136414      0.597308635711670
H      -3.474271774291992      0.772683978080750      1.176711559295654
H       1.018426775932312     -0.392425447702408      1.436641454696655
N       2.999816656112671     -1.083605289459229     -0.686723947525024
O       3.163269281387329      0.611713409423828      0.765950441360474
