31
Energy: -616.816792805983 Ha
C      -1.498422980308533     -1.239639163017273      2.866683244705200
C       2.179092407226562     -1.450970292091370     -0.710926651954651
C       1.202462553977966     -0.727069020271301     -0.514076232910156
C       1.389160275459290      3.492233037948608      0.381087273359299
C       1.170633792877197      2.014766693115234      0.620118796825409
C       3.346245527267456     -2.313704252243042     -0.901777446269989
C      -2.067907333374023      0.474179089069366     -1.170391440391541
C       0.046981252729893      0.072395808994770     -0.189805045723915
C      -0.970529794692993     -1.418576836585999      1.477132320404053
C      -3.074429988861084     -0.255810558795929     -2.033443927764893
H       0.719151914119720      1.817875981330872      1.603114604949951
H       4.178719520568848     -1.706507921218872     -1.230066537857056
H       3.196346521377563     -3.183049917221069     -1.581695556640625
H       3.583618402481079     -2.753283977508545      0.090010859072208
H       0.450685441493988      4.003561496734619      0.445586562156677
H       2.012906312942505      3.883079290390015      1.164829373359680
H       1.895129680633545      3.561828136444092     -0.614320397377014
H       2.105108261108398      1.486522316932678      0.547269463539124
H      -3.247582674026489     -1.222082376480103     -1.505084753036499
H      -2.493962764739990      0.544811427593231     -0.151494011282921
H      -2.647546291351318     -0.553600132465363     -3.042880058288574
H      -1.803456187248230      1.441904783248901     -1.495869040489197
H      -1.757754683494568     -1.605239033699036      0.778653383255005
H      -0.182152062654495     -2.186053991317749      1.362515807151794
H      -0.732267498970032     -0.811156272888184      3.500162124633789
H      -1.906615734100342     -2.097258329391479      3.306797742843628
H      -2.304578781127930     -0.442180752754211      2.761361122131348
H      -4.041328907012939      0.234019339084625     -2.141080617904663
O      -0.893726348876953     -0.328003644943237     -1.106404304504395
O      -0.316365718841553     -0.168732836842537      1.101945996284485
O       0.289575427770615      1.459234476089478     -0.338718593120575
