32
Energy: -542.8914021453081 Ha
C      -3.917363405227661     -1.252060651779175     -0.017957676202059
C       0.910534501075745     -0.995339453220367      0.842094421386719
C       2.217414379119873     -0.425983548164368      1.330143570899963
C       3.049952983856201     -0.392889559268951      0.031515181064606
C       3.230260848999023      1.004536628723145     -0.532231450080872
C       1.081796407699585     -1.397963047027588     -0.420798718929291
C      -1.652937173843384      1.882572650909424      0.423296958208084
C      -1.654138445854187     -0.265031486749649     -0.597346186637878
C      -2.437773227691650     -1.171928882598877      0.348775833845139
C      -0.305919945240021      2.499879837036133      0.071857601404190
H       0.455741018056870      1.735453367233276     -0.077595822513103
H       0.383353888988495     -1.882684588432312     -1.098683714866638
H       0.000333848176524     -1.095007658004761      1.425525426864624
H       2.670792818069458     -1.060880661010742      2.099686622619629
H       2.114882469177246      0.586366534233093      1.760715126991272
H       4.029297351837158     -0.889867246150970      0.150846913456917
H       3.729129791259766      0.974682152271271     -1.507470965385437
H       2.255929470062256      1.480234980583191     -0.657794713973999
H       3.821582317352295      1.605457901954651      0.133876487612724
H      -0.386318206787109      3.078528404235840     -0.858917832374573
H      -0.635029077529907     -0.244572028517723     -0.358078002929688
H      -2.403075933456421      2.671108484268188      0.568794071674347
H      -1.579891681671143      1.320314407348633      1.367770195007324
H      -1.753546237945557     -0.631858587265015     -1.625931501388550
H      -1.983365893363953     -2.169668674468994      0.321852713823318
H      -2.328824520111084     -0.801262676715851      1.380102157592773
H      -4.472676277160645     -1.863663196563721      0.694324910640717
H      -4.049908638000488     -1.685847401618958     -1.018857121467590
H      -4.361647129058838     -0.254200071096420     -0.028813259676099
H       0.031947303563356      3.178167819976807      0.876069784164429
O      -2.149665355682373      1.061353087425232     -0.613904416561127
O       2.315956830978394     -1.182047724723816     -0.939035534858704
