32
Energy: -691.8551334701967 Ha
C       3.191283941268921     -0.197225540876389     -0.818943798542023
C      -2.982869863510132      0.840288043022156      0.321963369846344
C      -2.166515111923218      1.560019612312317     -0.712965369224548
C       1.925850987434387     -0.769027233123779     -1.488131046295166
C       0.870107531547546     -1.346784353256226     -0.530320644378662
C      -3.044794321060181     -0.638395786285400     -0.022690353915095
C       1.039367318153381     -0.186449453234673      1.644537091255188
C       2.255913972854614      0.800381422042847      1.377685427665710
C       2.840100765228271      1.015324711799622     -0.000275552767562
C       0.187791109085083     -0.407586842775345      0.460532218217850
H       2.118005037307739     -1.515762209892273     -2.166763067245483
H      -3.796016216278076     -1.171951532363892      0.533562898635864
H      -3.345810890197754     -0.820766866207123     -1.055537223815918
H      -2.617459774017334      1.005965948104858      1.331995964050293
H      -3.964176177978516      1.315428733825684      0.249176636338234
H      -2.793844461441040      1.454352498054504     -1.635121226310730
H      -1.793797254562378      2.531784772872925     -0.569769024848938
H       1.414247632026672     -0.001760938321240     -2.001265764236450
H       1.304261326789856     -2.223973989486694      0.017543010413647
H       3.118522405624390      0.523623526096344      2.068835020065308
H       1.335416316986084     -1.013549804687500      2.258761882781982
H       0.329255014657974      0.279953807592392      2.285027265548706
H       1.963528871536255      1.824681282043457      1.653693318367004
H       3.753288984298706      1.601756572723389      0.146053791046143
H       2.248171091079712      1.757139205932617     -0.618737459182739
H       3.987400770187378      0.066162228584290     -1.579347610473633
H       3.566196441650391     -0.981762945652008     -0.234002709388733
H       0.022308880463243     -1.722850441932678     -1.168904423713684
O      -1.814929723739624     -1.473370552062988      0.027320358902216
O      -0.133823230862617      0.881628513336182     -0.060289770364761
O      -1.073322534561157      0.746476829051971     -1.116299152374268
O      -0.921289205551147     -1.021201848983765      1.036324739456177
