33
Energy: -983.6838501717665 Ha
C      -2.084981679916382     -1.708617329597473     -0.806716084480286
C       3.077042102813721      0.867698431015015     -0.949064671993256
C       1.850028157234192     -0.618041992187500      1.631444931030273
C       1.402170181274414     -0.690873324871063      0.176865816116333
C      -1.915842056274414      1.844113469123840      1.388624668121338
C       1.647432565689087      0.541520118713379     -0.665558040142059
C      -2.548044919967651      0.772549688816071     -0.360518455505371
C      -2.670871019363403     -0.331042945384979     -1.329003691673279
C      -0.523903071880341     -1.635371685028076     -0.866073906421661
C      -2.947238683700562      2.041299104690552     -0.513275682926178
H      -0.570707559585571     -0.407083123922348      0.711006283760071
H       0.417658686637878     -1.682786345481873      1.972633600234985
H       4.295024394989014      2.264392137527466     -1.383909821510315
H       1.122416496276855      0.426932156085968     -1.645435810089111
H       1.135134577751160      1.380271911621094     -0.154921725392342
H       1.914709448814392     -1.510419607162476     -0.380457758903503
H      -2.854265928268433      3.725411653518677      0.659265458583832
H      -1.531268477439880      2.075885057449341      2.378593921661377
H      -3.513425111770630      2.594835281372070     -1.256970882415771
H      -3.680547237396240     -0.644437789916992     -1.528457045555115
H      -2.321399450302124      0.000156216323376     -2.294776678085327
H      -2.321541070938110     -2.474286079406738     -1.548000931739807
H      -2.688026189804077     -1.423580169677734      1.160788059234619
H      -2.295691013336182     -2.968554496765137      0.733351349830627
N      -2.729099512100220     -2.128203153610229      0.440809756517410
N      -1.892806529998779      0.687652945518494      0.849797129631042
N      -2.560549020767212      2.750556707382202      0.575869619846344
N       0.052185665816069     -1.018310904502869      0.188152462244034
O       0.069288626313210     -2.024400472640991     -1.892399311065674
O       2.902541875839233     -0.074600234627724      1.877204418182373
O       3.933945417404175      0.009981963783503     -0.945636689662933
O       3.329275846481323      2.133224010467529     -1.293283104896545
O       1.151081681251526     -1.281456351280212      2.498432159423828
