33
Energy: -726.2982268875411 Ha
C      -1.481658816337585     -0.500615298748016     -0.518600583076477
C       1.786525845527649      2.276186466217041     -0.161747381091118
C       2.314570426940918      1.106728434562683     -1.083759427070618
C       2.373943328857422     -1.198640823364258     -0.045026507228613
C       1.451703429222107     -0.086527153849602     -0.537440478801727
C       1.266224026679993      1.625439643859863      1.066922426223755
C      -3.215687751770020     -0.668311595916748      1.205624461174011
C      -2.972280979156494     -0.579718470573425     -0.270883262157440
C      -0.636979877948761      0.626815795898438      0.193101927638054
C      -3.813974618911743      0.484608054161072     -1.043357372283936
H       0.878323256969452     -0.507699370384216     -1.361242294311523
H       1.586581826210022     -0.933168947696686      1.591117501258850
H       0.574983477592468      2.292838811874390      1.638446331024170
H       2.073581457138062      1.320733666419983      1.666741847991943
H       2.545207262039185      2.963686943054199      0.170550733804703
H       1.003961443901062      2.875614643096924     -0.656534552574158
H       3.344417095184326      0.850692689418793     -0.976821005344391
H       2.105934381484985      1.249846696853638     -2.179021358489990
H      -4.844286918640137      0.677966892719269     -0.581481635570526
H      -4.182612895965576     -0.796789884567261      1.594226002693176
H      -3.920856237411499      0.252363264560699     -2.146912813186646
H      -2.902229070663452      0.351111859083176      1.618476510047913
H      -2.532738208770752     -1.371278762817383      1.608437061309814
H      -3.299871444702148     -1.631164550781250     -0.578701436519623
H      -1.260151743888855     -0.141411602497101     -1.551440238952637
H      -0.880008518695831     -2.085084438323975      0.671569585800171
H      -1.545084714889526     -2.379969596862793     -0.800465941429138
H      -3.307816505432129      1.444276213645935     -0.892293334007263
N      -0.848099231719971     -1.839996576309204     -0.324646264314651
N       0.703481256961823      0.362752735614777      0.615173995494843
O       3.100833654403687     -1.737732648849487     -0.800174713134766
O      -1.180000662803650      1.720187544822693      0.351019233465195
O       2.221752166748047     -1.558410763740540      1.236986994743347
