34
Energy: -963.7926349344166 Ha
C       0.836160361766815      1.446959376335144     -0.223433554172516
C      -1.187842965126038     -1.647111892700195      0.728557527065277
C      -3.632535696029663     -0.096058182418346     -0.624025821685791
C      -2.081230640411377      0.148015066981316     -0.779365241527557
C       3.775280714035034     -1.754638314247131     -0.585776567459106
C      -1.299128770828247     -1.163117647171021     -0.687056601047516
C       2.895442485809326      0.036723565310240      0.196331813931465
C       1.762822866439819      0.860844016075134      0.777594804763794
C      -0.472358256578445      1.818297624588013      0.460038691759109
C       4.238447189331055      0.312650918960571     -0.120017319917679
H      -1.873350739479065      0.701978027820587     -1.731613159179688
H      -3.674845695495605     -1.504985570907593     -1.931578993797302
H      -0.008327820338309     -2.317208766937256      2.244319438934326
H       0.969940006732941     -1.889459967613220      0.793898999691010
H      -1.887020945549011     -2.006531000137329     -1.240576148033142
H      -0.376225888729095     -1.143881320953369     -1.173766374588013
H      -2.535861492156982      1.534390449523926      0.599178016185760
H       3.890435218811035     -2.823686122894287     -0.837394297122955
H       4.825524330139160      1.207239985466003     -0.092232331633568
H       2.229449510574341      1.696955323219299      1.385560035705566
H       1.192514061927795      0.256117045879364      1.442697644233704
H       0.638344943523407      0.699118554592133     -1.012287497520447
H       1.092093586921692      2.554292201995850     -1.812229990959167
H       0.801126360893250      3.467412471771240     -0.556355893611908
H       5.637852668762207     -1.029565453529358     -1.074728727340698
N       1.335756063461304      2.645931720733643     -0.871052742004395
N       2.634441614151001     -1.264185309410095     -0.136657044291496
N       4.738084316253662     -0.796756267547607     -0.647027254104614
N      -1.679696679115295      1.060790181159973      0.278882265090942
N       0.041854634881020     -2.155454635620117      1.179619312286377
O      -2.157549142837524     -1.756752252578735      1.444529533386230
O      -0.408962100744247      2.710713386535645      1.262161731719971
O      -4.328191757202148      0.577928125858307      0.088489942252636
O      -4.283430576324463     -0.983120799064636     -1.355972290039062
