34
Energy: -747.3265075306387 Ha
C      -3.450211048126221      1.496280670166016      0.295956522226334
C      -0.219492122530937     -2.012187957763672      0.028891945257783
C       2.122560262680054     -1.772639274597168     -0.550349116325378
C       2.702457427978516     -1.316818475723267      0.812899053096771
C       2.935777425765991      0.926374375820160      0.116588860750198
C      -1.563446044921875     -1.627764821052551     -0.574495315551758
C       0.010990669019520      1.360678195953369      0.049151584506035
C      -1.054290175437927      0.784690439701080     -0.914180517196655
C      -3.031819343566895      0.060484200716019      0.343582332134247
C       2.187131643295288      2.216733932495117      0.048432167619467
H       2.307730913162231     -1.876007080078125      1.671671986579895
H      -1.521501898765564     -1.822705745697021     -1.624907732009888
H      -2.344134807586670     -2.175202131271362     -0.078354664146900
H      -0.045671872794628     -3.131669759750366      0.014266524463892
H      -0.184804365038872     -1.695344209671021      1.089626908302307
H       2.309172868728638     -2.917789697647095     -0.449906706809998
H       2.763441085815430     -1.420987725257874     -1.396324157714844
H       3.777040243148804     -1.554927349090576      0.863735258579254
H       2.824412345886230      0.491482704877853     -0.918129324913025
H       0.469875514507294      0.496719747781754      0.527251660823822
H       2.089179515838623      2.698380231857300      1.100798726081848
H       2.796509027481079      2.896463632583618     -0.548814237117767
H      -0.526734650135040      1.969719290733337      0.748375713825226
H      -0.539905846118927      0.511358201503754     -1.884802341461182
H      -1.744273304939270      1.529383659362793     -1.254076361656189
H      -3.928047895431519      1.768975496292114     -0.686336219310760
H      -2.558809757232666      2.239332437515259      0.425597429275513
H      -4.119305610656738      1.656684279441833      1.178278088569641
H       3.998748779296875      1.083792567253113      0.267408907413483
N      -1.864390611648560     -0.267769604921341     -0.305988907814026
O       2.446567535400391      0.043431438505650      1.095064878463745
O      -3.726686716079712     -0.745245814323425      0.922620177268982
O       0.928022503852844      2.156146764755249     -0.615809857845306
O       0.775829255580902     -1.400364637374878     -0.757162928581238
