34
Energy: -855.5374281444848 Ha
C       1.909119367599487     -1.199873924255371     -0.029729234054685
C      -0.654247641563416     -0.165595605969429      1.377229213714600
C      -2.744400501251221     -1.197912693023682      0.836273968219757
C      -2.327868938446045      0.672402203083038     -0.855210721492767
C      -1.903501510620117     -0.656379103660583     -0.389802008867264
C      -1.770452499389648     -1.038856267929077      1.998130798339844
C       2.067635774612427      1.177225112915039     -0.859925448894501
C       2.746974945068359     -0.206241458654404     -0.790522634983063
C       0.496147632598877     -1.470459103584290     -0.535044252872467
C       1.636090278625488      1.990803599357605      0.483010798692703
H      -3.117164373397827     -2.303761482238770      0.728342950344086
H      -1.844894766807556      2.276631593704224     -1.777380347251892
H       0.273417711257935     -0.193551704287529      1.954239249229431
H      -0.914516687393188      0.881200134754181      1.533903717994690
H      -2.083436965942383     -0.610137641429901      2.936772346496582
H      -1.365774869918823     -1.935984253883362      2.507651567459106
H      -3.739293813705444     -0.812354505062103      0.869993507862091
H      -2.132016897201538     -1.324887752532959     -1.177284717559814
H       1.072046518325806      0.771954178810120     -1.091836690902710
H       0.301939398050308      3.371875762939453      1.136056542396545
H       2.316304683685303      1.991606950759888     -1.581122279167175
H       3.765772342681885     -0.141615539789200     -0.503950536251068
H       2.933136463165283     -0.615255177021027     -1.847289443016052
H       1.799562335014343     -0.824316620826721      0.996452808380127
H       2.003120660781860     -3.069362163543701      0.684872806072235
H       2.733639478683472     -2.948578357696533     -0.859686374664307
H      -0.004760545678437      2.430398702621460     -0.400858908891678
N       2.633188962936401     -2.454891443252563      0.093239456415176
N       0.604691982269287      2.833907604217529      0.317041456699371
N      -0.513862967491150     -0.545004367828369     -0.102975994348526
O      -3.470839977264404      0.933867633342743     -0.856496810913086
O       0.214579790830612     -2.460482597351074     -1.103884220123291
O       2.360830307006836      1.949084758758545      1.469870448112488
O      -1.329343318939209      1.675952553749084     -1.217798590660095
