34
Energy: -909.7046461579084 Ha
C       2.780090570449829     -0.564897835254669      0.083452127873898
C      -1.575074076652527      2.599323034286499     -0.323019802570343
C      -1.894395589828491      0.754300773143768      0.804342687129974
C      -1.461944103240967     -0.506619393825531      1.483437061309814
C      -1.763176918029785     -1.666076540946960     -0.729526221752167
C      -3.134855270385742      1.290469050407410      0.551739752292633
C       3.883312463760376      1.733873486518860      0.075753659009933
C       2.613058090209961      0.939905762672424      0.142712742090225
C       1.518934965133667     -1.204920649528503      0.743617594242096
C      -0.846584141254425     -1.526341319084167      0.472030282020569
H      -0.666953980922699     -2.418527364730835      1.075470209121704
H      -3.102622985839844     -2.470407962799072     -1.603055953979492
H      -3.563694000244141      3.102435827255249     -0.445782035589218
H      -1.185688495635986      3.503980159759521     -0.738484919071198
H      -4.141986370086670      0.918705523014069      0.744621813297272
H      -2.353078603744507     -0.891582548618317      2.049505949020386
H      -0.680296719074249     -0.281758695840836      2.205027341842651
H       0.445415437221527     -0.527148246765137     -0.816553652286530
H       4.565074920654297      1.469789624214172      0.813526332378387
H       3.745676517486572      2.790439605712891      0.095120400190353
H       0.786926329135895      1.253743886947632     -0.423647016286850
H       2.150802612304688      1.279935359954834      1.047555923461914
H       3.605322122573853     -0.919838011264801      0.675424277782440
H       2.783901929855347     -1.886550545692444     -1.627470254898071
H       2.440378189086914     -0.284452289342880     -1.872718214988708
H       4.385645866394043      1.585465431213379     -0.909218549728394
N       3.061113357543945     -0.886052250862122     -1.322243809700012
N       0.445494353771210     -1.175248742103577     -0.038323923945427
N      -0.974738478660583      1.527770876884460      0.192846298217773
N      -2.889143705368042      2.434714555740356     -0.156621366739273
O      -1.358979225158691     -1.121588230133057     -1.734847784042358
O       1.596766948699951     -1.604921102523804      1.887897849082947
O       1.694138765335083      1.299602508544922     -0.854807674884796
O      -2.860688686370850     -2.401420354843140     -0.651512563228607
