34
Energy: -909.6728774305006 Ha
C      -2.218466758728027     -0.157471239566803      0.605826318264008
C       3.607553958892822     -1.170220851898193      1.039790630340576
C       2.203187227249146     -0.762312769889832     -0.504564106464386
C       1.126778721809387     -0.021540414541960     -1.114151358604431
C       1.234381556510925      2.179722070693970      0.202513381838799
C       3.062826633453369     -1.767140388488770     -0.931711137294769
C      -2.256820678710938     -2.076825857162476     -1.234943628311157
C      -2.988841772079468     -1.389778852462769     -0.023106170818210
C      -2.047310113906860      0.960936069488525     -0.505899846553802
C       0.404365986585617      0.935108482837677     -0.091039679944515
H       0.168635025620461      0.465124040842056      0.880294740200043
H       2.318800926208496      1.145642757415771      1.291272044181824
H       4.876300811767578     -2.556740045547485     -0.107375152409077
H       4.090408802032471     -1.184027314186096      2.019289970397949
H       3.010186433792114     -2.261955738067627     -1.928736567497253
H       1.536148548126221      0.676752626895905     -1.802851557731628
H       0.329971611499786     -0.593157470226288     -1.562309265136719
H      -0.682347953319550      2.211199522018433     -1.262863874435425
H      -2.924091815948486     -2.695846557617188     -1.851892113685608
H      -1.991014838218689     -1.281361103057861     -2.015723228454590
H      -3.329149246215820     -1.677519321441650      1.793981790542603
H      -3.915984630584717     -1.023411154747009     -0.496496170759201
H      -1.299301147460938     -0.553118169307709      0.900837123394012
H      -3.931714296340942      0.659723877906799      1.292548656463623
H      -2.592224359512329      1.080136060714722      2.116174697875977
H      -1.346881985664368     -2.704813957214355     -0.963076233863831
N      -3.082630634307861      0.261927872896194      1.718536853790283
N      -0.773797214031219      1.244830727577209     -0.888930320739746
N       2.505302906036377     -0.465624928474426      0.811377048492432
N       3.979690313339233     -1.960664391517639      0.038554705679417
O       0.814476251602173      3.215314865112305     -0.330581277608871
O      -3.033576011657715      1.514801621437073     -0.949843108654022
O      -3.306533575057983     -2.298245429992676      1.010018467903137
O       2.340179681777954      2.111532688140869      0.930889725685120
