35
Energy: -1025.8014377257236 Ha
C      -1.300472855567932     -0.017485149204731      0.767555296421051
C       2.820940017700195      2.047373056411743     -0.021871469914913
C       2.779442310333252     -0.309456855058670      0.883350253105164
C       1.852368474006653     -1.920184969902039     -0.962770462036133
C       1.519603610038757     -0.754646599292755      0.102367773652077
C       2.620996952056885      1.153730630874634      1.172941088676453
C      -2.611320495605469      0.390228241682053     -1.303914189338684
C      -1.676994442939758     -0.599328398704529     -0.644906699657440
C      -0.587985098361969     -1.124049425125122      1.448990345001221
C      -3.957889556884766      0.702751755714417     -0.524939596652985
H       0.969466745853424      0.071682423353195     -0.252162009477615
H       1.279627084732056     -2.111966848373413     -2.733794212341309
H       2.069291591644287      3.734949588775635     -0.736810505390167
H       3.461337089538574      1.383448481559753      1.862009286880493
H       1.667710185050964      1.342106819152832      1.526131987571716
H       3.599604606628418     -0.455321073532104      0.210265502333641
H       2.976076126098633     -0.848570287227631      1.714967489242554
H       0.895392537117004     -2.125233173370361      1.634247422218323
H      -5.518713474273682     -0.254184812307358      0.139899238944054
H      -2.920555830001831     -0.057982258498669     -2.239786863327026
H      -2.101072311401367      1.308206200599670     -1.603615880012512
H      -2.012151241302490     -1.573409557342529     -0.576932370662689
H      -0.815469145774841     -0.459867507219315     -1.286672830581665
H      -2.215530872344971      0.073898956179619      1.377668142318726
H      -0.150888726115227      1.580554366111755      0.057786434888840
H      -1.556530356407166      1.967170834541321      0.839510619640350
N      -0.716096460819244      1.299620628356934      0.802913665771484
N       0.544883847236633     -1.589475154876709      0.850463211536407
O      -1.079515695571899     -1.788007855415344      2.421145915985107
O      -4.327994346618652      1.763250946998596     -0.146882966160774
O      -4.748559951782227     -0.464638918638229     -0.386480897665024
O       2.448867321014404     -2.934321880340576     -0.855046927928925
O       3.490700244903564      1.758281588554382     -1.040954589843750
O       2.031927824020386      3.143700599670410      0.032588645815849
O       1.286918997764587     -1.348276495933533     -2.150264739990234
