35
Energy: -876.6578752546125 Ha
C       1.462198019027710     -1.813345670700073      0.238015979528427
C      -3.190908670425415     -0.894638240337372     -0.605825781822205
C      -3.394759416580200      1.578376531600952      0.178130254149437
C      -2.486309289932251      0.336284697055817      0.072235174477100
C      -0.378118485212326      1.845307111740112     -0.233866363763809
C      -3.185725212097168     -2.161265850067139      0.187416017055511
C       3.060308933258057      0.424837440252304      0.056823730468750
C       2.470151424407959     -0.771599769592285      0.919655442237854
C       0.135277912020683     -1.133800148963928      0.450125426054001
C      -1.216536045074463      0.647899091243744     -0.674925744533539
H      -3.042211771011353      2.322600126266479      0.843959271907806
H       0.302691817283630      2.475348711013794      1.385216236114502
H      -3.734730720520020     -2.100626945495605      1.162818193435669
H      -2.147014141082764     -2.349478483200073      0.508409619331360
H      -3.690103292465210     -2.999385356903076     -0.399714022874832
H      -2.531723260879517     -1.099903583526611     -1.476268410682678
H      -4.213214874267578     -0.715685963630676     -0.917687177658081
H      -3.517171859741211      2.142419338226318     -0.834518134593964
H      -4.381202697753906      1.346653342247009      0.462122499942780
H      -1.420729041099548      0.882157623767853     -1.705735683441162
H       0.169824928045273     -0.368527293205261     -1.499044418334961
H       2.482173204421997     -0.718720912933350     -1.257835984230042
H       3.430939912796021     -1.200133800506592      1.200410485267639
H       2.094615221023560     -0.264111697673798      1.865223646163940
H       1.575147747993469     -2.670165538787842      0.867323160171509
H       2.650884866714478     -2.712627887725830     -1.217052340507507
H       1.092278838157654     -2.349388360977173     -1.773242235183716
H      -2.193147420883179      0.069401644170284      1.124412178993225
N       1.840747356414795     -2.062390327453613     -1.140228748321533
N      -0.332243114709854     -0.403475880622864     -0.615721523761749
O       0.180916637182236      2.672591447830200     -0.917554140090942
O      -0.322895437479019     -1.181092858314514      1.593706965446472
O       3.358644008636475      1.374240875244141      0.733283221721649
O       2.902419090270996      0.238699659705162     -1.198252081871033
O      -0.261622816324234      1.798424363136292      1.092084884643555
