36
Energy: -1005.9155468815491 Ha
C       1.906269192695618      2.058038234710693     -0.173173069953918
C      -4.363102912902832      0.432159125804901     -0.130292594432831
C      -2.193695545196533     -0.949987709522247     -0.365265339612961
C      -0.258900642395020     -1.932447314262390      0.710609138011932
C      -0.967669069766998     -0.615892469882965      0.473520755767822
C      -3.070789813995361      0.241431742906570     -0.911748230457306
C       3.366364002227783     -0.166662588715553      0.105393834412098
C       3.355688333511353      1.445830821990967      0.282305538654327
C       0.926855921745300      1.100962162017822      0.691071748733521
C       2.672513008117676     -0.768373131752014     -1.046627879142761
H      -1.243177771568298     -0.132330000400543      1.427809596061707
H       0.686025798320770     -1.000563263893127      2.137858152389526
H      -4.649031639099121      1.852540612220764     -1.386451244354248
H      -3.294726371765137     -0.037975043058395     -1.988287329673767
H      -2.423303604125977      1.154734730720520     -1.040680170059204
H      -2.855943918228149     -1.647376060485840      0.136249095201492
H      -1.691196680068970     -1.395775079727173     -1.267582535743713
H       0.286129623651505      0.070786617696285     -1.115054249763489
H       2.252448320388794     -2.656297683715820     -1.921630978584290
H       4.425247669219971     -0.414991915225983     -0.108446821570396
H       3.151613473892212     -0.582615375518799      1.145803213119507
H       4.308865547180176      1.767311453819275     -0.081416033208370
H       3.309951305389404      1.537791371345520      1.272447109222412
H       1.563391327857971      1.909088134765625     -1.203981995582581
H       0.799726247787476      3.799623727798462     -0.255045741796494
H       2.001638650894165      3.961024999618530      0.883581936359406
H       2.606788635253906     -2.610003709793091     -0.257541418075562
N       1.770027995109558      3.463092803955078      0.064764507114887
N       2.840099334716797     -2.214713335037231     -1.105950593948364
N       0.040345828980207      0.379334002733231     -0.121543779969215
O      -4.713788032531738     -0.072232894599438      0.880181968212128
O      -0.275534212589264     -2.959199190139771      0.035254973918200
O      -5.122192382812500      1.378936290740967     -0.769953846931458
O       1.094577074050903      0.882833540439606      1.894776821136475
O       2.129421472549438     -0.106185346841812     -2.049888134002686
O       0.633897006511688     -1.879067659378052      1.752967476844788
