37
Energy: -600.1431855556314 Ha
C      -1.248112440109253      2.052169322967529     -0.231807366013527
C      -2.406842708587646     -0.925872087478638     -0.049299992620945
C      -1.953241229057312     -2.537267684936523     -0.207879081368446
C      -0.698542892932892     -2.704691171646118     -0.793544113636017
C       0.343271166086197     -2.025771379470825      0.185130685567856
C       1.636725902557373     -1.685854434967041     -0.599748432636261
C      -2.257277965545654     -0.034670989960432      1.118990659713745
C       2.704620838165283      0.228331476449966      0.946715176105499
C       2.623110055923462      1.148175597190857     -0.304587662220001
C       1.406904816627502      2.330831527709961     -0.143184587359428
C       0.230463236570358      1.435417294502258     -0.247095063328743
C       2.980000019073486     -1.133132100105286      0.342715084552765
H      -0.125479951500893     -1.195111751556396      0.446976602077484
H      -3.038219690322876      2.019537925720215      1.074963212013245
H      -1.294710278511047     -0.479010164737701      1.636421203613281
H      -2.958530187606812     -0.101878397166729      1.896440625190735
H      -2.001065969467163     -0.336055785417557     -0.878550112247467
H      -3.528832435607910     -0.877167403697968     -0.201115176081657
H      -1.817515969276428     -2.757480382919312      0.860714793205261
H      -2.716505765914917     -3.155875205993652     -0.570829093456268
H      -0.493908196687698     -3.874791860580444     -0.828941404819489
H      -0.608877718448639     -2.476315021514893     -1.938453435897827
H       0.646826088428497     -2.649266719818115      0.986447453498840
H       1.592241287231445     -0.038145262748003      1.080341339111328
H       2.289065837860107     -2.466948270797729     -1.013848423957825
H       2.734442234039307     -1.584565520286560      1.420688390731812
H       4.099276542663574     -1.456781387329102      0.061692096292973
H       3.181723356246948      0.744238793849945      1.943397283554077
H       3.673242330551147      1.593278765678406     -0.386347711086273
H       2.229896306991577      0.628833055496216     -1.229019165039062
H       1.518818378448486      3.094881772994995     -0.818738818168640
H       1.491685509681702      2.837579727172852      0.820629715919495
H       0.292768955230713      0.738580882549286     -1.289606690406799
H       0.317656606435776      0.536895275115967      0.519602596759796
H       1.401813864707947     -0.818868041038513     -1.154734849929810
N      -2.249722480773926      1.374133229255676      0.617680907249451
O      -1.413028240203857      3.196188688278198     -0.857541084289551
