37
Energy: -986.0666141222791 Ha
C       1.763131856918335     -1.002105355262756      0.545188069343567
C      -2.523029804229736     -1.207254052162170     -1.039587616920471
C      -1.890798687934875      0.006214094348252     -1.501965641975403
C      -2.342599153518677      1.586776614189148      0.655680835247040
C      -1.391761064529419      0.891411840915680     -0.346175789833069
C      -3.834406375885010     -0.857727527618408     -0.284430742263794
C       3.771635055541992     -0.446500033140182     -1.043318748474121
C       2.967284917831421     -1.476581096649170     -0.329261004924774
C       0.779088377952576     -0.174332931637764     -0.210627868771553
C       4.655830860137939      0.467997521162033     -0.033900707960129
H      -0.795652449131012      1.659400820732117     -0.846936166286469
H      -3.475254058837891      1.693085193634033     -0.792047202587128
H      -4.654825210571289     -1.052356004714966      1.426185965538025
H      -2.959716558456421     -1.221893310546875      1.589616060256958
H      -2.776170492172241     -1.922018170356750     -1.862639069557190
H      -1.828298807144165     -1.799315094947815     -0.389030396938324
H      -1.059980034828186     -0.225008323788643     -2.175324440002441
H      -2.661543607711792      0.697255253791809     -2.078809261322021
H      -0.481227308511734     -0.420392751693726      1.425212740898132
H       5.972642421722412      1.783794164657593      0.350326627492905
H       5.305150032043457      2.099267482757568     -1.289246082305908
H       2.977524280548096      0.304893732070923     -1.297621011734009
H       4.355463981628418     -0.646622955799103     -1.872381806373596
H       3.489767313003540     -2.113345861434937      0.389254331588745
H       2.547004699707031     -2.187736749649048     -1.104641556739807
H       2.298000812530518     -0.279342383146286      1.238386631011963
H       1.833614110946655     -2.335058212280273      2.133423566818237
H       0.530821323394775     -2.651121139526367      1.125111341476440
N      -3.778029918670654     -0.949231088161469      1.048420429229736
N      -0.415846079587936     -0.008670118637383      0.379443913698196
N       1.158799529075623     -1.917641758918762      1.539525985717773
N       5.463284969329834      1.491957426071167     -0.506896555423737
O      -4.872530937194824     -0.471862554550171     -0.833849847316742
O       1.076583027839661      0.424710631370544     -1.215303778648376
O       4.565619945526123      0.293765485286713      1.183910250663757
O      -1.916114687919617      1.731878042221069      1.757875323295593
O      -3.521186590194702      1.968285679817200      0.149630457162857
