37
Energy: -1002.9759354321947 Ha
C       1.504710078239441      1.182646393775940     -0.324526101350784
C      -3.547921895980835     -1.342127084732056      0.521804988384247
C      -1.738436460494995     -1.260836362838745     -1.237073183059692
C      -2.304703712463379      1.175846934318542     -0.348928391933441
C      -1.164794206619263      0.108440935611725     -0.705447733402252
C      -3.157451152801514     -1.544479250907898     -0.937922656536102
C       4.027012825012207     -0.636241495609283      0.978815019130707
C       3.707561969757080      0.090438731014729     -0.086570985615253
C       2.928983449935913      1.324934720993042      0.100930921733379
C       0.585808932781219      0.793071568012238      0.795893788337708
C       4.590708732604980     -1.777961850166321     -0.868430197238922
H      -1.850160241127014     -1.221843361854553     -2.371795654296875
H      -4.041724681854248      1.606749773025513     -0.803006052970886
H      -5.306562423706055     -0.925084292888641      1.525547266006470
H      -5.232790470123291     -1.662654399871826     -0.072925671935081
H      -3.849303960800171     -1.001301050186157     -1.584003806114197
H      -3.477139949798584     -2.459562540054321     -1.167571902275085
H      -1.013230443000793     -2.124331951141357     -0.842024207115173
H      -0.599374115467072      0.448123216629028     -1.442774176597595
H       5.012722015380859     -2.462594985961914      1.069752812385559
H       4.747802734375000     -2.705344200134277     -1.379160761833191
H       4.035820960998535     -0.304046392440796      2.046390295028687
H       3.364619255065918      2.155098915100098     -0.356792330741882
H       3.149574995040894      1.578283548355103      1.127106189727783
H       1.640461206436157      0.513952672481537     -1.243912220001221
H       1.080551266670227      2.501594066619873     -1.833322644233704
H       0.993621528148651      3.218808650970459     -0.203611955046654
H      -0.988840818405151     -0.380708813667297      1.296763300895691
N       0.932098925113678      2.424111843109131     -0.835095107555389
N       3.943508625030518     -0.695485055446625     -1.250443696975708
N       4.617730617523193     -1.710532069206238      0.541150510311127
N      -0.442583799362183     -0.078533828258514      0.463635683059692
N      -4.831500053405762     -1.151700854301453      0.643486142158508
O      -2.187395811080933      1.855482220649719      0.588119089603424
O      -2.754756689071655     -1.447877287864685      1.390055298805237
O       0.725187242031097      1.238160848617554      1.949999809265137
O      -3.256747007369995      1.232664585113525     -1.182557582855225
