37
Energy: -986.0600479635694 Ha
C      -1.361650228500366     -0.620940029621124      0.314767688512802
C       4.271814823150635     -0.445669025182724     -0.198534995317459
C       3.451612949371338      0.683027207851410     -0.722544014453888
C       1.679880380630493      2.484446763992310     -0.157832741737366
C       2.195630311965942      0.977965414524078      0.103478208184242
C       3.678284645080566     -1.898682236671448     -0.361461460590363
C      -3.697184801101685     -0.634670555591583     -0.601479291915894
C      -2.615263938903809      0.240906849503517     -0.014756692573428
C      -0.138739794492722      0.321857362985611      0.678774833679199
C      -5.096796512603760     -0.254335403442383     -0.475148618221283
H       2.358998298645020      1.039913773536682      1.167685747146606
H       1.006079077720642      2.313169717788696      1.604365229606628
H       5.404905796051025     -2.830044984817505      0.418705761432648
H       3.933499813079834     -3.853888988494873      0.180459767580032
H       5.303478240966797     -0.329208523035049     -0.602393567562103
H       4.312697410583496     -0.400664448738098      0.868252635002136
H       4.018182277679443      1.565724015235901     -0.611008167266846
H       3.172500848770142      0.438746929168701     -1.771303176879883
H       1.100576519966125     -0.926927864551544     -0.290546894073486
H      -6.998363971710205     -0.891887784004211     -0.125833734869957
H      -5.875403404235840     -1.940265536308289      0.477758526802063
H      -3.435786008834839     -0.940295994281769     -1.678646326065063
H      -3.514721155166626     -1.616498827934265     -0.267045170068741
H      -2.898295402526855      0.732624232769012      0.924707829952240
H      -2.235957384109497      1.081138730049133     -0.649818181991577
H      -1.047525644302368     -1.207232475280762     -0.584646046161652
H      -2.628370046615601     -2.017713785171509      1.480855822563171
H      -1.122561573982239     -2.563950061798096      1.220450282096863
N       4.386755466461182     -2.984441518783569      0.170119553804398
N       1.113388538360596      0.007300463970751      0.059725083410740
N      -1.635156393051147     -1.697811484336853      1.454076409339905
N      -6.047120571136475     -1.264695763587952     -0.251110374927521
O       2.572580099105835     -2.146546125411987     -0.869894504547119
O      -0.128542885184288      1.221095442771912      1.471569538116455
O      -5.453627109527588      0.926662981510162     -0.714201807975769
O       1.688762187957764      2.977787256240845     -1.265544414520264
O       1.347761631011963      3.121170759201050      0.980164766311646
