38
Energy: -613.6218874264293 Ha
C       0.391286671161652      2.401865005493164      0.319680005311966
C       1.577484607696533      1.784143805503845     -0.386271864175797
C       2.513415336608887      0.033498495817184      1.023445367813110
C       3.048745870590210     -1.185082793235779      0.204227969050407
C       0.765445649623871     -2.223971843719482     -0.689839720726013
C      -0.303869575262070     -1.672889828681946      0.279629707336426
C      -1.708917856216431     -2.013384580612183     -0.286674350500107
C      -2.786061763763428     -0.130701214075089      1.020551443099976
C      -2.871293544769287      1.020628452301025     -0.151669532060623
C      -0.938032209873199      2.495289564132690     -0.593475997447968
H      -1.688357353210449     -3.109189033508301     -0.176824256777763
H      -2.015056610107422     -1.773007512092590     -1.382469773292542
H      -3.057387828826904     -2.078098058700562      1.255174756050110
H      -1.883758306503296      0.191293641924858      1.595347046852112
H      -3.540521383285522     -0.016327857971191      1.770067691802979
H      -0.644063889980316      2.970395088195801     -1.638957977294922
H      -3.674812316894531      0.801341295242310     -0.929737925529480
H      -1.585199832916260      0.775782704353333     -1.945515513420105
H      -1.622118592262268      3.172036886215210     -0.033726871013641
H      -0.214103564620018     -0.594029843807220      0.249856337904930
H      -2.958187580108643      2.052416324615479      0.575458705425262
H      -0.287107616662979     -1.854372024536133      1.377938508987427
H       3.284102201461792     -2.136451482772827      0.791974186897278
H       1.171854138374329     -3.284615516662598     -0.403274685144424
H       2.478514194488525     -1.768114686012268     -1.716389298439026
H       4.090747356414795     -1.052728056907654     -0.223917052149773
H       2.896612405776978      0.174663484096527      2.069324254989624
H       1.463461995124817     -0.122618198394775      1.299719214439392
H       2.998164892196655      1.927317857742310      1.108445644378662
H       1.877762436866760      2.453959226608276     -1.170539140701294
H       1.150051355361938      0.926034569740295     -0.860338330268860
H       0.800797045230865      3.204767704010010      0.820237398147583
H       0.200336217880249      1.783415317535400      1.200024008750916
H       0.470122933387756     -2.195261478424072     -1.744337201118469
N      -2.832891225814819     -1.563780069351196      0.432131141424179
N       2.792715787887573      1.270712852478027      0.306460320949554
N       1.965224027633667     -1.433231830596924     -0.834598124027252
N      -1.616630196571350      1.225587606430054     -0.807587325572968
