38
Energy: -708.8114726169804 Ha
C       3.659493207931519     -1.281216263771057      1.262485623359680
C       2.104194164276123     -1.211597442626953     -0.480109244585037
C       1.844025850296021      0.315990537405014     -0.506809115409851
C       0.346557646989822      2.140124559402466     -1.155810475349426
C      -0.954351007938385      2.618000984191895     -0.494773209095001
C      -1.035204529762268      2.496027231216431      0.996833860874176
C      -1.050317168235779      1.069839358329773      1.566706180572510
C      -2.120840787887573     -1.198455929756165      1.284657478332520
C      -2.987169981002808     -1.997750401496887      0.313306421041489
C      -2.802604913711548     -1.439679861068726     -1.089387178421021
H      -1.778511404991150      0.353187561035156     -0.100984849035740
H      -1.142626166343689     -1.628239989280701      1.378816366195679
H      -2.566968917846680     -1.179690003395081      2.306216955184937
H      -2.888357877731323     -3.068397283554077      0.360678225755692
H      -1.114941835403442     -1.839713335037231     -2.341788291931152
H      -3.143072843551636     -0.378939062356949     -1.169507384300232
H      -3.433915376663208     -2.016551733016968     -1.769136190414429
H      -0.802544593811035     -1.981961131095886     -0.759179353713989
H      -1.334006905555725      1.110813498497009      2.672766685485840
H      -4.087429523468018     -1.908764243125916      0.489286065101624
H       0.006555492524058      0.607950925827026      1.541780114173889
H      -1.846662163734436      2.158646583557129     -0.972038924694061
H      -1.964893102645874      2.973354101181030      1.270665287971497
H      -1.042467236518860      3.650003671646118     -0.839577376842499
H       0.233313679695129      2.408510446548462     -2.228928089141846
H       1.250990152359009      2.693320274353027     -0.796165585517883
H      -0.009855379350483      0.120170518755913     -1.383384823799133
H       2.086220979690552     -1.481675028800964     -1.544368028640747
H       1.230757355690002     -1.678371787071228      0.001328232232481
H       2.796700000762939     -1.408074617385864      1.925732135772705
H       3.842848062515259     -0.195969462394714      1.378313660621643
H       4.533728599548340     -1.897459745407104      1.615014195442200
H      -0.275035709142685      3.134213447570801      1.546419262886047
N       0.648303985595703      0.740449726581573     -1.068685293197632
N      -2.011256456375122      0.224812015891075      0.914919316768646
N      -1.364883184432983     -1.491833567619324     -1.426961898803711
O       3.371721267700195     -1.585856318473816     -0.034224636852741
O       2.693569898605347      1.094849109649658     -0.178208440542221
