38
Energy: -857.9381636836637 Ha
C      -0.687885999679565     -1.417401552200317     -0.112072587013245
C       3.265915155410767     -0.474456161260605     -0.364386647939682
C       2.174449205398560      1.784166693687439      0.296735435724258
C       1.869783282279968      0.273099780082703     -0.078085482120514
C      -4.290773391723633      0.140829846262932     -0.432535767555237
C       4.164688110351562     -0.381404191255569      0.819161653518677
C      -2.682110309600830     -0.970801711082458      1.398967981338501
C      -1.184187173843384     -0.719702064990997      1.170590639114380
C      -0.340148687362671     -0.285378813743591     -1.093030929565430
C      -3.778227090835571      0.022047301754355      0.984265267848969
H      -5.835553169250488      1.137150526046753      0.175696000456810
H       0.292321085929871      2.022661924362183      0.273175865411758
H       4.085918426513672      0.521124839782715      1.384689688682556
H       3.945121765136719     -1.062416553497314      1.608260393142700
H       5.162727355957031     -0.607916533946991      0.596806347370148
H       2.391313314437866     -2.076742649078369     -0.128566399216652
H       3.745593070983887     -0.028702773153782     -1.225836396217346
H       1.494249343872070     -0.194105014204979      0.776653707027435
H       1.069404363632202      0.880981206893921     -1.950224280357361
H      -4.789465427398682      2.101932764053345     -0.612196922302246
H      -4.730457305908203     -0.341294139623642      1.539417743682861
H      -3.369721174240112      0.264939278364182     -1.089904904365540
H       0.888720214366913     -2.325647592544556     -0.680839419364929
H      -4.750731945037842     -0.876389861106873     -0.875875353813171
H      -1.429820418357849     -2.009591102600098     -0.527206599712372
H      -0.666342079639435     -1.106826663017273      2.052169084548950
H       0.341293960809708     -3.096989393234253      0.709578156471252
H      -3.008874177932739     -1.898584961891174      1.033889532089233
H      -2.760154008865356     -0.951314508914948      2.595971822738647
H      -3.653804302215576      1.035661220550537      1.444011926651001
H      -0.730170607566833      0.367118954658508      1.098687648773193
N       0.515880286693573     -2.266229629516602      0.208824530243874
N      -5.260897636413574      1.181754946708679     -0.630163967609406
N       0.913547992706299      0.244686886668205     -1.191404700279236
O       3.072165727615356     -1.785618066787720     -0.780816078186035
O      -1.290706396102905      0.190987184643745     -1.705581903457642
O       3.187572717666626      2.382318258285522      0.350704580545425
O       1.038430452346802      2.499496459960938      0.579842805862427
