38
Energy: -857.9684168898175 Ha
C       0.797538161277771     -1.125195980072021      0.577610909938812
C      -1.552393317222595      1.489462852478027     -0.555835843086243
C      -3.398900270462036     -0.045066159218550      0.156152278184891
C      -1.900605678558350      0.177731588482857      0.125852018594742
C       3.600075483322144      1.415855526924133      0.566339910030365
C      -2.178548574447632      2.659945964813232      0.255070745944977
C       2.842775344848633     -0.462991684675217     -0.951698720455170
C       2.233596324920654     -1.375372052192688      0.154162943363190
C      -0.206496447324753     -1.631385326385498     -0.451624482870102
C       2.765838384628296      1.024887204170227     -0.684846818447113
H       5.202246665954590      0.091550141572952      0.266230136156082
H      -3.417056083679199      0.350110530853271      1.995790362358093
H      -1.886216640472412      2.724167346954346      1.338742375373840
H      -2.006648540496826      3.671102285385132     -0.175906047224998
H      -3.227354288101196      2.465234041213989      0.073130518198013
H       0.188508361577988      1.101530194282532     -1.375328302383423
H      -2.065002202987671      1.574641108512878     -1.502995371818542
H      -1.527768850326538      0.035078473389149      1.134763836860657
H      -1.979992389678955     -1.271304607391357     -1.407157778739929
H       5.632478237152100      1.684400200843811      0.010566413402557
H       1.652743935585022      1.248036384582520     -0.570241928100586
H       3.489606142044067      2.509134769439697      0.931622266769409
H       1.201274871826172     -1.660074234008789      2.560823678970337
H       3.234193801879883      0.792778849601746      1.359299302101135
H       0.470565497875214     -0.111445941030979      0.831436514854431
H       2.847166299819946     -1.446382403373718      1.028188109397888
H      -0.301633447408676     -1.954007625579834      2.127206563949585
H       3.865442991256714     -0.818018853664398     -1.215229868888855
H       2.309791803359985     -0.806618750095367     -1.890383005142212
H       3.136934518814087      1.610264897346497     -1.557316303253174
H       2.176851272583008     -2.408504486083984     -0.181803733110428
N       0.651755511760712     -2.059112310409546      1.734451174736023
N       5.036205768585205      1.027759194374084      0.558835744857788
N      -1.292082786560059     -0.815023183822632     -0.793384373188019
O      -0.175269618630409      1.752627611160278     -0.718007922172546
O      -0.202799201011658     -2.734426021575928     -1.032361745834351
O      -4.021102905273438     -0.553703486919403     -0.729672193527222
O      -4.073898315429688      0.382468372583389      1.301560163497925
