39
Energy: -733.293356740922 Ha
C       4.312747955322266     -1.674891352653503      0.424550920724869
C       2.847051620483398     -1.485052585601807     -0.172433361411095
C       1.698396205902100     -1.738284349441528      0.705960750579834
C       0.296625345945358     -1.651110410690308     -0.133337467908859
C      -0.403164178133011     -0.396980911493301      0.033385127782822
C       0.480246484279633      0.693575561046600     -0.571422815322876
C      -0.307372391223907      2.135929346084595     -0.317217975854874
C       0.445385813713074      3.129138469696045     -1.255405068397522
C       1.649304270744324      3.699699878692627     -0.458410382270813
C      -2.770435094833374      0.637249410152435      1.981870770454407
C      -2.542973518371582     -2.001915693283081     -1.969578146934509
H       0.838137745857239      2.797415256500244     -2.182381868362427
H       1.219810485839844      4.166630268096924      0.444379717111588
H       2.299762964248657      4.605568408966064     -0.762232720851898
H       2.542814731597900      2.953583240509033     -0.113076321780682
H      -3.348732471466064      0.593867480754852      0.965204358100891
H      -3.656964063644409     -1.514840006828308     -2.429238080978394
H      -2.898184299468994      1.583446383476257      2.426974296569824
H      -2.794215917587280     -3.282249689102173     -1.772409677505493
H      -1.599848270416260     -1.718384265899658     -2.783729314804077
H      -0.149473413825035      4.090779781341553     -1.379957556724548
H      -3.010100841522217     -0.318136513233185      2.586190938949585
H      -0.001184945693240      2.749863624572754      0.789497256278992
H      -0.213362380862236     -2.486401319503784      0.434077918529510
H       0.595443964004517      0.415116488933563     -1.799095511436462
H       1.379023671150208      0.692893564701080      0.006181331351399
H       0.361965060234070     -1.703997015953064     -1.291078925132751
H       1.660471796989441     -1.264674186706543      1.714783668518066
H       1.773287177085876     -2.784450769424438      1.021141409873962
H       2.751992464065552     -1.975211501121521     -1.202864289283752
H       2.897572278976440     -0.381786227226257     -0.462894439697266
H       4.972182750701904     -1.542398810386658     -0.690953016281128
H       4.506057262420654     -0.660817205905914      1.026801586151123
H       4.531323909759521     -2.722443103790283      0.934574663639069
H      -1.668891549110413      2.132453680038452     -0.382564425468445
O      -1.627405166625977     -0.316143035888672     -0.722006082534790
O      -0.664182424545288     -0.459520757198334      1.420351386070251
O      -1.274479031562805      0.750042736530304      1.905729532241821
O      -2.336903572082520     -1.538125157356262     -0.692212998867035
