39
Energy: -638.5225257519551 Ha
C      -1.254708290100098     -1.622865319252014      0.667910754680634
C      -2.570101737976074     -1.047235846519470      0.213031440973282
C      -2.470591783523560      0.330709427595139     -0.587293624877930
C      -2.592033386230469      1.661141157150269      0.185542479157448
C      -1.461494326591492      2.229901790618896      0.938393890857697
C      -0.311649590730667      2.536695957183838     -0.036487393081188
C       0.977411687374115      1.711074471473694      0.190347999334335
C       2.135262012481689      1.910879731178284     -0.684401154518127
C       3.257841587066650      0.982302904129028     -0.243657082319260
C       3.060594558715820     -0.474336624145508     -0.551434040069580
C       2.539542913436890     -1.334741353988647      0.581452250480652
H       1.363771915435791      1.854384779930115      1.236150026321411
H       2.389676809310913      2.932893276214600     -0.546506941318512
H       2.010289192199707      1.705568909645081     -1.754131317138672
H       3.232090473175049      1.058801293373108      1.045057535171509
H       4.323945999145508      1.302313446998596     -0.567101657390594
H       1.344757795333862     -2.991491794586182      0.299744337797165
H       2.317946195602417     -0.454537600278854     -1.338228464126587
H       3.284040689468384     -1.378649711608887      1.547446727752686
H       1.466206073760986     -0.873919308185577      0.882121860980988
H       0.752611339092255      0.607028365135193      0.275665223598480
H       3.947606801986694     -0.910386800765991     -1.091840982437134
H      -0.657715141773224      2.409012317657471     -1.059066057205200
H      -3.353368282318115      1.572492718696594      1.003694891929626
H      -1.755117893218994      3.087260723114014      1.571928381919861
H      -1.152252912521362      1.623157501220703      1.736677169799805
H      -2.993816614151001      2.418660163879395     -0.575332701206207
H      -3.345499753952026      0.246164426207542     -1.173992037773132
H      -1.529982089996338      0.271896302700043     -1.278071880340576
H      -3.810113668441772     -1.474778652191162     -1.686531305313110
H      -3.313457012176514     -0.789214968681335      1.010972023010254
H      -1.456761240959167     -2.526587724685669      1.285083889961243
H      -0.758974075317383     -0.770473420619965      1.058524966239929
H      -0.590431094169617     -2.298152208328247     -1.418753027915955
H       0.174710720777512     -0.877561986446381     -0.704283118247986
H       0.015408549457788      3.698125839233398     -0.128963589668274
N      -0.284450262784958     -1.899643898010254     -0.381570786237717
O      -3.344609737396240     -1.922548890113831     -0.596971929073334
O       2.372751712799072     -2.758158206939697      0.472009271383286
