39
Energy: -896.0524023947152 Ha
C      -2.149676561355591     -0.881512105464935     -0.735227763652802
C       2.325704574584961      0.943857967853546      0.602034509181976
C       2.540805578231812      0.061635535210371     -0.589146137237549
C       2.215176582336426     -2.128296613693237      0.370528191328049
C       1.607071161270142     -1.130247235298157     -0.704235970973969
C       2.233983993530273      2.423536062240601      0.106865495443344
C      -2.638334989547729      0.558655619621277      1.264155149459839
C      -4.516848087310791      0.053964193910360     -0.453717797994614
C      -2.985493421554565      0.259760320186615     -0.183957949280739
C      -0.692545652389526     -0.385812819004059     -1.005113601684570
C      -2.784719467163086      2.059478044509888      1.668439865112305
H      -0.019867531955242     -2.084892272949219     -0.023336384445429
H       1.815436363220215     -3.629037141799927      1.250952959060669
H       0.560959398746490      1.807250022888184     -0.899290025234222
H       0.818593859672546      3.473407268524170     -0.993489086627960
H       1.382103323936462      0.655538916587830      1.056938171386719
H       3.187741756439209      0.928825497627258      1.286429882049561
H       2.315829515457153      0.718953311443329     -1.468630433082581
H       3.569061517715454     -0.255456089973450     -0.658874332904816
H       1.659504175186157     -1.582454800605774     -1.729847550392151
H      -3.943871259689331      2.370073318481445      1.480245709419250
H      -3.121448040008545     -0.139760524034500      1.957011222839355
H      -2.410572290420532      2.324936628341675      2.673038244247437
H      -2.506886005401611     -2.060129642486572      1.029667854309082
H      -2.205284833908081      2.598626375198364      0.860881626605988
H      -2.385839939117432     -0.947566330432892     -1.820979356765747
H      -2.723851680755615      1.139294505119324     -0.744656324386597
H      -2.698821306228638     -2.898317813873291     -0.353465288877487
H      -4.636383056640625      0.089975655078888     -1.573501706123352
H      -5.197841167449951      0.832197964191437      0.032274190336466
H      -1.610844373703003      0.386938482522964      1.514713406562805
H      -4.843411445617676     -0.916229128837585      0.024849623441696
N      -2.243956565856934     -2.117094993591309      0.028614286333323
N       0.222899526357651     -1.077128410339355     -0.293778687715530
N       1.256476879119873      2.598016262054443     -0.802177250385284
O       3.015635013580322      3.294500112533569      0.427119970321655
O      -0.497743338346481      0.727598965167999     -1.554395794868469
O       3.408084392547607     -2.316016197204590      0.565624058246613
O       1.251150488853455     -2.912187814712524      0.877491116523743
