40
Energy: -967.3868187706966 Ha
C       2.629515409469604      1.236108064651489     -0.751049339771271
C      -2.327702999114990     -0.554529428482056      0.015954498201609
C      -1.963053822517395     -1.871993064880371     -0.595994830131531
C      -0.474021852016449     -1.938215732574463     -1.194628238677979
C       0.631098091602325     -1.908988356590271      1.002546906471252
C      -4.280755996704102      0.977857291698456     -0.011114255525172
C       2.726372480392456      3.148916482925415      0.876008927822113
C       2.393868684768677      1.671314001083374      0.744947373867035
C       2.892251729965210     -0.270072311162949     -0.715906977653503
C       0.622361421585083     -1.237726449966431     -0.359531790018082
H      -2.663115024566650     -2.116537570953369     -1.396348834037781
H       1.492581844329834     -0.408585041761398      1.596377611160278
H      -4.000051498413086      2.880656003952026     -0.775282263755798
H      -3.425109624862671      1.676020741462708     -1.799951910972595
H      -5.379605770111084      2.233611583709717      0.837561666965485
H      -4.429649829864502     -0.991343319416046      0.450103193521500
H      -1.892608404159546      0.220112934708595     -0.581255614757538
H      -1.894467949867249     -0.393552124500275      1.040321230888367
H      -2.018712759017944     -2.679982185363770      0.092710681259632
H      -0.248348861932755     -2.994024753570557     -1.366455435752869
H       0.364777266979218     -0.208704307675362     -0.237907946109772
H       1.249088525772095      0.735605776309967     -2.258016586303711
H       2.397952318191528     -2.198810577392578     -1.044805288314819
H       1.908694624900818      3.652117490768433      0.372841566801071
H       2.475771665573120      3.291366577148438      1.947636961936951
H       3.744096517562866      3.360168218612671      0.560414195060730
H       0.537561714649200      1.516092658042908      0.307265311479568
H       3.001287221908569      1.121775984764099      1.464123129844666
H       3.492708683013916      1.718174219131470     -1.181989908218384
H       1.276584982872009      2.304632186889648     -1.738450646400452
H      -0.570610105991364     -1.525800824165344     -2.220495462417603
N       1.401548147201538      1.368722558021545     -1.452931642532349
N       1.927218198776245     -1.234841227531433     -1.005474686622620
N      -3.765861749649048     -0.319819837808609     -0.059013269841671
N      -5.289469718933105      1.195348024368286      0.775492429733276
N      -3.580974578857422      1.946904420852661     -0.819202780723572
O       1.066272139549255      1.410578131675720      1.139794111251831
O       0.103996299207211     -2.928011894226074      1.244977235794067
O       4.090370178222656     -0.638869106769562     -0.630594253540039
O       1.318655610084534     -1.269099116325378      1.969837903976440
