40
Energy: -1021.4954683715214 Ha
C       2.764378547668457     -1.157854795455933     -0.027749689295888
C      -3.071600437164307     -0.364292055368423     -1.554378271102905
C      -3.164418935775757     -1.659250855445862     -0.770459532737732
C      -1.735573410987854     -2.203005075454712     -0.346197813749313
C      -1.703280210494995     -0.461416631937027      1.737435102462769
C      -2.372335195541382      1.928938150405884     -0.683817863464355
C       3.793183088302612      1.104273557662964      0.266794145107269
C       3.767861604690552     -0.155643612146378     -0.608585357666016
C       1.335604429244995     -0.754442870616913     -0.425422877073288
C      -1.043118476867676     -0.955514311790466      0.360555291175842
H      -3.930467128753662     -1.521852970123291     -0.005650532431901
H      -1.250539422035217     -0.268119841814041      3.556463956832886
H      -1.599646449089050      3.264075279235840      0.481117546558380
H      -2.864995718002319      2.468132257461548      1.195672273635864
H      -1.516347885131836      1.484318137168884     -2.288775205612183
H      -3.770263910293579      0.741397798061371      0.094858452677727
H      -2.144442796707153     -0.215023398399353     -2.068667650222778
H      -3.733054637908936     -0.411830693483353     -2.434257745742798
H      -3.551203250885010     -2.400355339050293     -1.486627817153931
H      -1.220951795578003     -2.574229001998901     -1.257097840309143
H      -1.810380101203918     -3.147863388061523      0.282484680414200
H      -1.059558153152466     -0.047113254666328     -0.344493865966797
H       0.736876070499420     -1.343715310096741      1.416276931762695
H       5.471744537353516      1.579270005226135     -0.701248228549957
H       4.782772064208984      2.829760551452637      0.421273946762085
H       3.366285800933838      0.130094811320305     -1.664804697036743
H       4.788945674896240     -0.542907476425171     -0.474937766790390
H       2.828936100006104     -1.187711715698242      1.033730983734131
H       2.066359758377075     -2.868773460388184     -0.893099188804626
H       3.617794752120972     -3.012652635574341      0.070534653961658
N      -2.476454019546509      2.784189939498901      0.367673605680466
N      -1.433305382728577      2.212979078292847     -1.571204185485840
N      -3.380544424057007      0.954517722129822     -0.811274111270905
N       2.960300445556641     -2.488307476043701     -0.613367915153503
N       4.714737892150879      2.045518875122070     -0.218224823474884
N       0.397707730531693     -1.144977807998657      0.480909109115601
O      -2.868657112121582      0.001914100022987      1.809370279312134
O       1.086108565330505     -0.284806966781616     -1.517099738121033
O       3.095975399017334      1.289652824401855      1.224165439605713
O      -0.827072679996490     -0.435896635055542      2.725642442703247
