40
Energy: -804.8439511085965 Ha
C      -3.113097667694092     -0.350621521472931      0.401144772768021
C      -2.430645942687988      0.795609593391418     -0.338500320911407
C      -0.338752925395966      2.230204105377197     -0.655292928218842
C       0.128940597176552      2.808691024780273      0.734735071659088
C      -0.670369267463684      0.047874893993139     -1.747398257255554
C      -0.202667176723480     -1.302689790725708     -1.307475686073303
C       0.515319466590881     -2.235257387161255      0.888085305690765
C       0.713272273540497     -1.343346476554871      2.271368026733398
C       2.342389106750488     -1.552882194519043     -0.464440733194351
C       2.979511260986328     -0.170767381787300     -0.483830213546753
H       1.321049332618713     -3.069343090057373      0.951605558395386
H      -0.572946071624756     -2.682053089141846      0.903439044952393
H       1.671325683593750     -0.929392278194427      2.128271102905273
H       0.380199879407883     -1.593459606170654      3.368491649627686
H      -0.303223907947540     -0.060577724128962      1.023687601089478
H       3.090750455856323      1.193917155265808     -2.188206911087036
H       2.794986963272095     -2.036224126815796     -1.386906862258911
H       4.026328563690186     -0.278137356042862     -0.730103135108948
H       2.837362766265869      0.464477300643921      0.416053891181946
H      -1.205881953239441     -1.797267436981201     -0.929890692234039
H       2.860517501831055     -2.080271482467651      0.532744705677032
H       0.092513620853424     -1.766514658927917     -2.310132265090942
H       0.936222612857819      1.454314947128296      2.021480321884155
H      -1.654745340347290      0.071009442210197     -2.391044616699219
H      -3.823633670806885     -1.191001296043396     -1.031035184860229
H      -4.104775905609131      0.084059312939644      0.717025279998779
H       0.175032988190651      0.318778187036514     -2.512431859970093
H      -3.035565853118896      0.904674291610718     -1.286446690559387
H      -2.512465953826904      1.677336096763611      0.390075176954269
H      -2.405405282974243     -0.687491595745087      1.053820610046387
H      -0.984646916389465      3.096961975097656     -1.023842096328735
H      -0.647757291793823      2.825260877609253      1.464812278747559
H       0.463554680347443      3.927512168884277      0.694401502609253
H       0.605406999588013      2.131142854690552     -1.104319334030151
N      -1.040887594223022      0.945710957050323     -0.825613200664520
N       0.803475856781006     -1.315096020698547     -0.268854111433029
O      -0.142541363835335     -0.123171173036098      2.056771516799927
O      -3.237059116363525     -1.479847192764282     -0.278307914733887
O       1.232195615768433      2.266552209854126      1.452632665634155
O       2.411689996719360      0.467353165149689     -1.593677282333374
