40
Energy: -971.1217492678218 Ha
C      -1.929378390312195     -1.099434852600098      0.262295067310333
C       3.163294315338135      1.109512686729431      1.308834791183472
C       3.493781805038452     -0.334959357976913      1.011109113693237
C       2.715618133544922     -1.145497679710388      0.013655957765877
C       0.646107316017151     -1.293027877807617     -1.287116169929504
C       3.186847925186157      2.215394735336304      0.205217435956001
C      -2.727274894714355      2.211582660675049     -0.143220022320747
C      -3.503947257995605      0.836137235164642     -0.377323657274246
C      -3.345045566558838     -0.515443980693817      0.484424948692322
C      -0.856857657432556     -1.046401143074036      1.342011570930481
C       1.225564360618591     -0.769781827926636     -0.125479444861412
H       3.515165805816650     -0.721418380737305      2.018472671508789
H       0.451632380485535      0.490683525800705     -2.281016826629639
H       3.202048540115356      2.383194208145142     -1.813017606735229
H       4.392731189727783      1.394116759300232     -1.344903111457825
H       2.253197669982910      2.645186424255371     -0.166687801480293
H       3.756989240646362      3.170559644699097      0.429938822984695
H       2.092437267303467      1.129793763160706      1.749097585678101
H       3.790202617645264      1.550397157669067      2.060548782348633
H       4.536688327789307     -0.317914694547653      0.687524676322937
H       3.075919628143311     -1.055280685424805     -0.953293025493622
H       0.955353796482086     -1.169367790222168      1.917874932289124
H       1.043260216712952      0.401035726070404     -0.183437421917915
H      -2.833396434783936     -2.952462911605835     -0.494794934988022
H       2.801703214645386     -2.267132282257080      0.416099518537521
H      -1.527557730674744     -0.498084813356400     -0.558596849441528
H      -3.326506376266479     -0.350294083356857      1.582625865936279
H      -1.633317589759827     -2.405652761459351     -1.261914491653442
H      -3.026735782623291      0.546330749988556     -1.349489688873291
H      -4.571059703826904      0.994426131248474     -0.509001910686493
H      -0.766113877296448      2.546073675155640      0.038135599344969
H      -4.048328399658203     -1.273504376411438      0.210790514945984
N      -1.949625611305237     -2.481011390686035     -0.266591221094131
N       0.476841360330582     -1.130186915397644      1.010006546974182
N       3.386657238006592      1.540261745452881     -1.121584057807922
O       0.723497092723846     -2.516495227813721     -1.684125781059265
O      -1.264065384864807     -1.061117410659790      2.495591878890991
O      -3.080827951431274      3.323164939880371     -0.137700751423836
O      -1.378301978111267      1.779928684234619     -0.160141333937645
O       0.006737595889717     -0.369557589292526     -2.227902889251709
