41
Energy: -656.5421031266204 Ha
C      -1.109212040901184      3.305420637130737      0.406476974487305
C       3.331478357315063      1.815840840339661     -0.473498970270157
C       1.743355751037598      0.030180037021637     -0.430294454097748
C       1.356671333312988     -0.151981264352798      1.115364074707031
C      -0.545272052288055     -2.080227851867676      0.684137403964996
C      -1.243668198585510     -2.097644567489624     -0.686088204383850
C      -0.137925833463669     -0.562149286270142      1.352561712265015
C      -3.483760118484497     -0.927198171615601      0.195367828011513
C      -3.284616231918335      0.429938942193985     -0.754348039627075
C      -2.117352962493896      1.462140202522278     -0.845812141895294
C      -2.096153020858765      2.073062419891357      0.504601478576660
C      -2.765452623367310     -2.220427513122559     -0.421832382678986
H      -0.770429790019989      0.283418476581573      0.927189052104950
H      -1.151424884796143     -2.847881555557251      1.490451216697693
H       0.476848602294922     -2.617448329925537      0.617407679557800
H      -0.372870028018951     -0.571384608745575      2.484623908996582
H       1.938569784164429     -0.883934736251831      1.642288804054260
H       4.557116985321045      1.885379433631897     -0.070210970938206
H       1.126075387001038      0.834411025047302     -0.673295795917511
H       1.377293109893799     -0.868491113185883     -1.060843348503113
H       2.451179504394531      2.466554880142212     -0.043370928615332
H       3.334695816040039      1.847897887229919     -1.835443973541260
H      -0.801418542861938     -1.204150438308716     -1.237014174461365
H       1.602085471153259      0.738355576992035      1.605860352516174
H      -0.797540545463562     -3.110779285430908     -1.186520218849182
H      -3.531431913375854      0.107804760336876     -1.814412117004395
H      -3.497669935226440     -2.352045297622681     -1.279024839401245
H      -3.031694889068604     -0.672463536262512      1.127633810043335
H      -4.630796432495117     -1.015312552452087      0.079208940267563
H      -4.139771461486816      1.091961503028870     -0.666856646537781
H      -1.001232981681824      1.115585923194885     -1.014671325683594
H      -2.496450185775757      2.234986305236816     -1.663172960281372
H      -3.217930316925049      2.528960227966309      0.875714898109436
H      -1.857591986656189      1.309889554977417      1.397396206855774
H      -1.286189794540405      4.332458496093750      1.075585484504700
H      -0.709766805171967      3.622709035873413     -0.699436426162720
H      -0.082264333963394      3.113307952880859      0.939196050167084
H      -2.715973377227783     -2.950933218002319      0.471819430589676
N       4.209702014923096     -0.545375883579254     -0.234031319618225
N       3.250681638717651      0.354031711816788     -0.329447925090790
O       3.639667987823486     -1.692646622657776     -0.178194925189018
