41
Energy: -951.3673857699431 Ha
C       2.033521175384521     -1.913953423500061      0.499040991067886
C      -3.561874389648438      0.813047587871552      0.202886819839478
C      -2.087560653686523      0.655366301536560     -0.133611902594566
C      -2.574460268020630     -1.848227739334106     -0.350692212581635
C      -1.592860817909241     -0.795197129249573      0.215110391378403
C      -4.189321994781494      2.196225166320801      0.003670425619930
C       4.447957038879395      0.928399622440338     -0.882140278816223
C       3.197551965713501      0.189306065440178     -0.598351478576660
C       3.287617206573486     -0.969144046306610      0.430593281984329
C       0.760188639163971     -1.070235610008240      0.800960183143616
C       5.271812438964844      1.535895228385925      0.259067267179489
H       6.003221035003662      3.546599388122559      0.577515721321106
H      -4.087485790252686     -2.880376100540161      0.081762537360191
H      -2.381261825561523      3.153513908386230     -0.123176395893097
H      -3.936605453491211      4.158777713775635     -0.158067345619202
H      -4.078755855560303      0.256672024726868     -0.584019720554352
H      -3.903747081756592      0.476061731576920      1.224528670310974
H      -1.955865502357483      1.018596053123474     -1.103009223937988
H      -1.453661799430847      1.318897485733032      0.530908882617950
H      -1.547461628913879     -0.847384691238403      1.347364068031311
H      -0.096938304603100     -1.776864528656006     -0.929835319519043
H       4.867246150970459      3.461183547973633     -0.464060306549072
H       6.167541027069092      0.945067882537842      0.477440416812897
H       2.528169870376587     -2.332228660583496     -1.478737711906433
H       5.080299854278564      0.221646532416344     -1.407279014587402
H       4.251626491546631      1.720504403114319     -1.601770520210266
H       2.863325357437134     -0.296890974044800     -1.559914350509644
H       2.301869630813599      0.772202908992767     -0.224005177617073
H       4.104891300201416     -1.667398571968079      0.257740408182144
H       3.562429428100586     -0.615141749382019      1.437343001365662
H       2.183786630630493     -2.488838434219360      1.458262443542480
H       4.751873493194580      1.489617824554443      1.224619746208191
H       1.977106213569641     -3.730622529983521     -0.651877999305725
N       2.000359296798706     -2.732508182525635     -0.718966424465179
N       5.651617050170898      2.871496438980103     -0.143257081508636
N      -0.197753831744194     -1.107525110244751     -0.132749497890472
N      -3.386882543563843      3.282766342163086     -0.251530528068542
O      -2.545757293701172     -2.092046499252319     -1.488792538642883
O      -5.353934288024902      2.434903144836426      0.013447642326355
O       0.631590187549591     -0.528847515583038      1.903677582740784
O      -3.435449361801147     -2.368020772933960      0.535991191864014
