41
Energy: -805.9772210162029 Ha
C      -1.561381220817566      0.311806321144104      0.994014322757721
C       3.383768796920776     -0.731848180294037     -0.754487276077271
C       2.462812185287476     -1.585980415344238      1.464554190635681
C       2.818907737731934     -0.321535587310791      0.591028869152069
C       1.853928685188293      1.817922234535217     -0.187569215893745
C       1.522252559661865      0.472715049982071      0.438680678606033
C       4.347727298736572     -1.903854608535767     -0.876015126705170
C      -4.048097133636475      0.793597459793091     -0.997981309890747
C      -4.007427692413330     -0.408909350633621      0.064109049737453
C      -3.018948793411255     -0.191744193434715      1.184734106063843
C      -0.814969301223755     -0.677670359611511      0.110057234764099
C      -4.056227207183838     -1.740293502807617     -0.753726661205292
H       3.495435714721680      0.361974090337753      1.136530876159668
H       3.387225627899170     -2.097164392471313      1.525753974914551
H       1.795230746269226     -2.135138511657715      0.881289660930634
H       2.103263616561890     -1.255181789398193      2.454998970031738
H       4.007313728332520      0.106172427535057     -1.196221470832825
H       4.251233100891113     -2.385300159454346     -1.922321796417236
H       5.338356494903564     -1.487451553344727     -0.584489166736603
H       4.157933235168457     -2.694875478744507     -0.282509118318558
H       0.008363901637495      2.015610456466675     -0.854930102825165
H       1.203511357307434      0.574282288551331      1.475877642631531
H       2.433510541915894     -0.927395462989807     -1.404013633728027
H       0.782522797584534     -1.088696718215942     -0.741611003875732
H      -4.191436290740967      1.743297100067139     -0.554194927215576
H      -4.074278354644775     -2.614270448684692     -0.009635857306421
H      -4.908193588256836     -1.645378947257996     -1.382591843605042
H      -4.771982669830322      0.442872911691666     -1.642041325569153
H      -3.055000066757202      1.041306495666504     -1.517303586006165
H      -4.910837173461914     -0.408333182334900      0.697921454906464
H      -2.850163221359253     -1.204278707504272      1.528632998466492
H      -3.490392208099365      0.295585989952087      2.012176275253296
H      -0.907241523265839      0.328455001115799      1.925744056701660
H      -0.792472541332245      2.167421340942383      1.194871544837952
H      -2.414752960205078      2.169996500015259      0.528173267841339
H      -3.058724403381348     -1.858520984649658     -1.364534378051758
N      -1.479303598403931      1.796844363212585      0.596987187862396
N       0.516496896743774     -0.327218919992447     -0.243157669901848
O       2.935399293899536      2.270217657089233     -0.015835341066122
O      -1.311314702033997     -1.553222894668579     -0.528708398342133
O       0.864308118820190      2.440805912017822     -0.961302816867828
