42
Energy: -728.2290062591036 Ha
C      -0.968449413776398     -2.406728506088257      1.710952877998352
C      -1.982649087905884     -1.621324300765991      0.969463884830475
C      -2.481036901473999     -0.428136199712753     -1.152693629264832
C      -2.195456981658936      1.080935239791870     -0.989594876766205
C      -0.802738904953003      1.413476109504700     -1.439716219902039
C      -0.279011726379395      3.102230548858643      0.318448692560196
C       0.388210058212280      2.058016300201416      1.176910281181335
C       1.850390195846558      1.900507330894470      0.762316405773163
C       2.022147655487061     -0.502999782562256      0.724955677986145
C       2.868192672729492     -0.878941535949707     -0.471846282482147
C       2.484643220901489     -2.240525960922241     -1.093416810035706
H       1.938362360000610      1.868786334991455     -0.310693651437759
H       2.444315433502197      2.784128427505493      1.045295357704163
H       2.283259153366089      0.748795926570892      2.331470727920532
H       0.926627695560455     -0.595738828182220      0.511603176593781
H       2.208685874938965     -1.329652190208435      1.522756695747375
H       0.999013364315033     -1.362320542335510     -2.049329280853271
H       3.983148813247681     -0.841452836990356     -0.219705596566200
H       3.202134370803833     -2.499992847442627     -1.874969601631165
H       2.531629562377930     -3.050330877304077     -0.328363090753555
H       1.039239048957825     -3.046394824981689     -2.217350006103516
H      -0.184629708528519      1.131975769996643      1.094404697418213
H       2.691066265106201     -0.164849385619164     -1.292131543159485
H       0.278682798147202      2.375341892242432      2.180008172988892
H      -0.069518625736237      0.764234721660614     -1.013779640197754
H      -1.239783763885498      3.325208663940430      0.839920699596405
H       0.006202440708876     -2.586760520935059      1.112389326095581
H      -1.334177136421204     -3.397956371307373      2.031669378280640
H      -0.685918807983398     -1.789136171340942      2.605044364929199
H       0.281122177839279      4.063617229461670      0.373798280954361
H      -3.555553913116455     -0.617322981357574     -0.868405818939209
H      -0.650799334049225     -1.482955574989319     -0.595811069011688
H      -2.961906433105469      1.697621107101440     -1.506153464317322
H      -2.322772741317749      1.321616172790527      0.082886435091496
H      -0.711104154586792      1.310886383056641     -2.558239459991455
H       0.336364030838013      3.025057077407837     -1.580406785011292
H      -2.244801282882690     -0.780850589275360     -2.191377878189087
N       1.095653891563416     -2.237634897232056     -1.590193748474121
N      -1.661698222160339     -1.300916314125061     -0.308891326189041
N      -0.516864418983459      2.806249856948853     -1.063631892204285
N       2.497516155242920      0.738159537315369      1.344904661178589
O      -3.064573049545288     -1.221452116966248      1.388184189796448
