42
Energy: -921.5002181901108 Ha
C       0.602832555770874     -1.643172025680542     -1.478755354881287
C      -2.647793769836426     -1.738525509834290     -0.099208422005177
C      -3.121374845504761      0.048394817858934      1.499456286430359
C      -3.591619968414307      0.855049431324005      0.226171165704727
C      -1.750204205513000      1.975081443786621     -0.020674370229244
C      -0.484125614166260      2.293105363845825     -1.106007218360901
C      -1.170472860336304     -1.406646251678467     -0.086328372359276
C       2.472402334213257      1.509010434150696      0.725484788417816
C       4.023993492126465      0.027006728574634      0.449279695749283
C       3.053839445114136     -0.698839008808136      1.309130668640137
C       1.946301698684692     -1.748962759971619     -0.746048092842102
C       0.997605562210083      1.261501669883728      0.281272828578949
H      -1.267384767532349      1.523449301719666      1.040780544281006
H      -2.050850868225098      3.250570535659790      0.136603698134422
H      -4.427246570587158      0.179713025689125     -0.092553548514843
H      -3.642069339752197      2.015879869461060      0.499431192874908
H      -1.994569063186646      0.290639877319336      1.744275808334351
H      -2.879423618316650     -2.826798915863037     -0.053289733827114
H      -3.153171062469482     -1.626850843429565     -1.143415451049805
H      -0.649756491184235     -1.324056506156921      1.089711189270020
H      -1.441307425498962     -0.272616744041443     -0.765558838844299
H      -1.031800627708435      2.100742816925049     -2.175883054733276
H      -3.616671800613403      0.138488516211510      2.413335800170898
H      -0.099177464842796      3.361304283142090     -1.211452603340149
H       3.284897804260254      2.869389057159424      0.721870779991150
H       0.580423474311829      2.442611932754517      0.692540884017944
H       0.620586454868317     -1.849309086799622     -2.478497028350830
H       0.177249044179916     -0.465447217226028     -1.264369845390320
H       0.436643570661545      0.364028513431549      0.682921350002289
H       2.710255384445190     -1.282161474227905     -1.272932767868042
H       3.459230184555054     -1.564039468765259      1.817142486572266
H       2.131101131439209     -2.882655143737793     -0.817731857299805
H       4.508283138275146      0.476097166538239      1.394674181938171
H       4.583069324493408     -0.628578662872314     -0.176781967282295
H       2.341941833496094      1.207281351089478      1.985012054443359
H       2.388713121414185      0.108834080398083      1.986313819885254
O      -3.256134033203125     -1.220602154731750      1.044125676155090
O       1.820860266685486     -1.166604280471802      0.660835623741150
O       3.197425365447998      0.846299827098846     -0.287707626819611
O       0.723486781120300      1.538901567459106     -1.149420261383057
O      -2.618646383285522      1.112679123878479     -0.742328226566315
O      -0.236650541424751     -2.361241817474365     -0.834853768348694
