42
Energy: -640.7796574119177 Ha
C      -3.261601686477661     -1.152881264686584     -0.121447198092937
C       0.535486459732056      2.361096858978271      0.826212584972382
C       1.140429615974426      2.358213186264038     -0.571917533874512
C       1.814031243324280      1.107745170593262     -1.101196527481079
C       3.111538648605347      0.563824892044067     -0.453816711902618
C       3.395732879638672     -0.840694546699524     -0.894228339195251
C      -0.862193703651428      1.765421628952026      0.845533013343811
C       1.224355936050415     -1.901674628257751      0.268087357282639
C       0.806599795818329     -1.140769839286804      1.477987289428711
C      -0.625469624996185     -0.762757599353790      1.557756423950195
C      -1.058194637298584      0.220636144280434      0.487417459487915
C      -2.628487110137939      0.221008270978928      0.235038712620735
C       2.760025024414062     -1.951464295387268      0.027366628870368
H       3.040091514587402     -1.039405465126038     -1.894934654235840
H       2.935057163238525      0.615046679973602      0.659327208995819
H       3.874387979507446      1.336633801460266     -0.600811421871185
H       1.080001711845398      0.240340515971184     -1.303143620491028
H       2.045125722885132      1.367750406265259     -2.131030559539795
H       0.580398023128510      3.450268030166626      1.120630145072937
H       0.366585105657578      2.737952232360840     -1.279706239700317
H       1.292980194091797      1.821971893310547      1.543333768844604
H      -1.409125685691833      1.864387750625610      1.873000144958496
H      -1.589446306228638      2.220632791519165      0.207451537251472
H       4.489852428436279     -1.049003839492798     -0.839734733104706
H       2.001526355743408      3.027497529983521     -0.633557200431824
H       3.311187028884888     -1.960504293441772      1.020116329193115
H      -1.408866167068481     -1.591413497924805      1.488762855529785
H       1.078328967094421     -2.964061975479126      0.526879191398621
H       0.659976482391357     -1.826658010482788     -0.663548350334167
H       0.925871491432190     -1.866161704063416      2.366589069366455
H       1.458082318305969     -0.233810752630234      1.608365774154663
H      -0.999476134777069     -0.276334285736084      2.530928850173950
H      -0.606488764286041     -0.135250300168991     -0.539957404136658
H      -2.935105323791504      0.709244012832642     -1.627631664276123
H      -3.077880859375000      0.630445182323456      1.126751661300659
H      -3.088569879531860     -1.995728850364685      0.570215880870819
H      -4.359556198120117     -0.847362339496613     -0.265123486518860
H      -2.082255601882935     -2.266894817352295     -1.513189673423767
H      -3.861469268798828     -1.972816586494446     -1.928878664970398
H       3.129737377166748     -2.880839109420776     -0.422193914651871
N      -2.910690069198608     -1.555216312408447     -1.467024564743042
O      -3.073704481124878      1.085545659065247     -0.778312385082245
