42
Energy: -931.4880233128943 Ha
C       2.368650674819946      0.616506814956665     -0.349848985671997
C      -2.196151018142700     -1.901879549026489      1.318834185600281
C      -1.546770691871643     -0.745298385620117      2.106887817382812
C      -1.802690148353577      0.617172002792358      1.564374923706055
C      -1.636710405349731      2.146855831146240     -0.457517474889755
C      -1.714306116104126     -1.924308657646179     -1.041769504547119
C       3.947780609130859     -1.149503827095032     -0.888906478881836
C       2.849909782409668     -1.437051296234131      1.360654473304749
C       2.711292982101440     -0.889041900634766     -0.058532971888781
C       1.069304466247559      1.052314162254333      0.249739706516266
C      -1.379367113113403      0.795195639133453      0.060560014098883
H      -2.877988576889038      0.911493301391602      1.610657811164856
H      -1.224838137626648      3.329121828079224     -1.820085883140564
H      -0.946324348449707     -1.586315512657166     -2.814373970031738
H      -0.000823036010843     -2.594429492950439     -1.833414435386658
H      -3.051450490951538     -1.518180489540100     -2.264366149902344
H      -0.535254955291748     -2.933545112609863      0.465445458889008
H      -3.211198091506958     -1.589910387992859      0.931305408477783
H      -2.473136425018311     -2.650054931640625      2.042045593261719
H      -0.413191467523575     -0.749103009700775      2.062920093536377
H      -1.901738762855530     -0.732932746410370      3.113640069961548
H      -1.313424229621887      1.470447063446045      2.142319440841675
H       4.312063217163086     -2.203812360763550     -0.814566850662231
H       0.205796450376511     -0.028204511851072     -1.126998186111450
H       3.297786951065063      2.389851093292236     -0.376339375972748
H      -1.990146160125732      0.117715276777744     -0.611633300781250
H       2.334137678146362      0.743999719619751     -1.464703798294067
H       1.892685413360596     -1.426091551780701     -0.599056065082550
H       3.667341709136963     -0.999997079372406      1.962362647056580
H       3.556607007980347      1.404855132102966      1.043285131454468
H       2.938983678817749     -2.533934116363525      1.324144959449768
H       3.789315223693848     -0.921865224838257     -1.981024146080017
H       4.791123867034912     -0.564332842826843     -0.492134690284729
H       1.885409116744995     -1.211456060409546      1.871151685714722
N       3.552173376083374      1.439461231231689     -0.003124071052298
N      -0.021634377539158      0.437795311212540     -0.260792851448059
N      -1.397284626960754     -2.418728590011597      0.210896492004395
N      -2.888724088668823     -1.515967369079590     -1.282032966613770
N      -0.636828958988190     -1.828346014022827     -1.900517940521240
O      -2.448199272155762      2.902325868606567      0.037851467728615
O       0.997774183750153      1.894709229469299      1.123831987380981
O      -0.925987839698792      2.451891899108887     -1.525237917900085
