43
Energy: -861.3089477713036 Ha
C       1.474778056144714     -1.228559136390686      1.026766538619995
C      -1.150148034095764      1.930061101913452     -0.391439735889435
C      -2.553100109100342      1.640620112419128      0.197535619139671
C      -2.743750810623169      0.444074451923370      1.080870032310486
C      -2.718681097030640     -0.952766537666321     -1.129276990890503
C      -2.268241405487061     -0.867014944553375      0.360863327980042
C      -0.149144023656845      2.486035823822021      0.541075468063354
C       4.114252567291260      1.230117917060852     -0.318290531635284
C       3.524972438812256     -0.157660380005836     -0.248494818806648
C       2.008362531661987     -0.157909825444221      0.078088544309139
C      -0.007877044379711     -0.940171897411346      1.364371418952942
C       3.693692207336426     -0.847610473632812     -1.618100285530090
H      -2.327462673187256      0.412449508905411      2.059280633926392
H      -3.159647464752197      1.570319533348083     -0.735660612583160
H      -2.910050392150879      2.537342071533203      0.794973552227020
H      -1.305223107337952      2.720047950744629     -1.226959824562073
H      -0.759224712848663      1.080569028854370     -0.955778777599335
H      -0.080940201878548      1.837194681167603      1.431705713272095
H       1.407435536384583      2.154606103897095     -0.915620028972626
H       0.879906177520752      3.658195495605469     -0.896448969841003
H      -4.427938461303711     -0.430608332157135     -0.534674584865570
H      -3.787410259246826      0.232312351465225      1.267634034156799
H      -0.635498821735382      3.399191141128540      0.928889393806458
H      -2.735921144485474     -1.657696604728699      0.956907212734222
H       4.697752952575684     -0.787620365619659     -1.971699953079224
H       2.939138650894165     -0.356609523296356     -2.302742004394531
H       1.653226137161255     -2.893639326095581     -0.401918590068817
H       1.365953922271729     -3.361741781234741      1.020992636680603
H       2.040340662002563     -1.022554039955139      1.962460994720459
H      -0.323652565479279     -0.817585051059723     -0.519214749336243
H       1.344949722290039     -0.125012472271919     -0.806157112121582
H       1.943248629570007      0.857800781726837      0.516241610050201
H       5.160629272460938      1.313887119293213     -0.696302115917206
H       4.260922431945801      1.659136295318604      0.693022966384888
H       3.452478408813477      1.900570273399353     -0.882102251052856
H       3.387478351593018     -1.821571350097656     -1.451676130294800
H       3.999102592468262     -0.849025726318359      0.525767505168915
N       1.854244470596313     -2.611393928527832      0.524042904376984
N      -0.857655048370361     -1.048751235008240      0.312109112739563
N       1.092051744461060      2.870656967163086     -0.273569822311401
O      -1.937391161918640     -1.416072845458984     -2.042803287506104
O      -0.349655359983444     -0.635834515094757      2.515849828720093
O      -3.969300270080566     -0.592947125434875     -1.405897498130798
