43
Energy: -902.0898799663072 Ha
C       0.651572883129120     -1.983924865722656     -1.191186785697937
C      -1.930664777755737     -1.481294631958008      1.382863044738770
C      -3.445103406906128     -0.906162917613983     -0.375067830085754
C      -3.246952295303345      0.586924731731415     -0.064710937440395
C      -1.632958292961121      1.950882196426392     -1.418266534805298
C      -0.786476612091064      3.017330169677734     -0.681150972843170
C      -0.662525177001953     -2.081314802169800      0.827110946178436
C       1.613050222396851      1.470579624176025      1.449146032333374
C       2.687348842620850      0.484188348054886     -0.534932672977448
C       3.344832420349121     -0.828598797321320     -0.507189273834229
C       1.925691366195679     -2.784177064895630     -0.598953843116760
C       0.952528178691864      2.776722908020020      1.082809209823608
H      -1.105434775352478      1.459450244903564     -2.227556228637695
H      -4.021713733673096      1.087103724479675     -0.711923360824585
H      -3.411706686019897      0.878185987472534      0.974689185619354
H      -2.941822290420532     -1.261906385421753     -1.256218910217285
H      -4.557541370391846     -1.097738742828369     -0.382936179637909
H      -2.072133064270020     -1.850930571556091      2.377254486083984
H      -1.017794609069824     -3.016368150711060      0.351682782173157
H      -0.095648385584354     -2.400902986526489      1.764251708984375
H      -0.600481390953064     -0.532660901546478     -0.461896419525146
H      -2.469096899032593      2.446849107742310     -1.948941111564636
H      -1.780511736869812     -0.356160193681717      1.511406898498535
H      -0.331436514854431      3.798259496688843     -1.257045507431030
H       1.870112061500549      1.333584308624268      2.485941410064697
H       0.085568353533745      3.131839990615845      1.659601569175720
H      -0.058700617402792     -2.737362623214722     -1.549556612968445
H       1.051751494407654     -1.316714286804199     -2.023456335067749
H       1.688596367835999     -3.713190078735352     -0.029918171465397
H      -1.457024335861206      3.234550952911377      0.138427212834358
H       3.472748279571533     -1.198272943496704     -1.545580267906189
H       2.439354181289673     -3.164396762847900     -1.453529357910156
H       1.637342810630798      0.365975022315979     -0.754183948040009
H       3.186397075653076      1.193830251693726     -1.170056939125061
H       0.945232510566711      0.674125373363495      1.221014022827148
H       1.813232541084290      3.491558313369751      1.060245275497437
H       4.322380542755127     -0.626003682613373     -0.070309169590473
N       0.103303790092468     -1.245368003845215     -0.066635176539421
O      -1.859567523002625      0.834977924823761     -0.426004439592361
O       2.619714260101318     -1.744669437408447      0.188694417476654
O       2.741056203842163      1.366927742958069      0.648676574230194
O       0.311407417058945      2.335467576980591     -0.155778482556343
O      -3.079717397689819     -1.846710920333862      0.687189161777496
