43
Energy: -861.3441196833106 Ha
C      -1.689269185066223     -0.730561792850494     -0.236875385046005
C       2.084936857223511      2.283715486526489     -0.743924677371979
C       3.251959085464478      1.351737022399902     -0.347801893949509
C       2.829113006591797      0.020991818979383      0.283353537321091
C       2.006261587142944     -2.351613521575928     -0.042899224907160
C       1.974177837371826     -0.876126825809479     -0.607201337814331
C       1.373902320861816      2.709821224212646      0.548341870307922
C      -3.960978031158447      0.533125996589661     -0.461586326360703
C      -1.995823383331299      1.886539697647095     -0.056026011705399
C      -2.578891038894653      0.493534505367279      0.190116524696350
C      -0.253184884786606     -0.532336115837097      0.271299093961716
C      -4.927881717681885     -0.538703858852386     -0.018147356808186
H       3.698684453964233     -0.575682222843170      0.469434469938278
H       3.838742733001709      1.248980998992920     -1.195297598838806
H       3.907062768936157      1.849895119667053      0.376500010490417
H       2.622848033905029      3.113004684448242     -1.092043995857239
H       1.395993828773499      1.905455589294434     -1.491535663604736
H       0.725452065467834      1.880228281021118      0.915726542472839
H      -0.077318742871284      3.636853694915771     -0.391132354736328
H       0.125521138310432      4.223294258117676      1.008256435394287
H       1.119655251502991     -3.933301210403442     -0.318086236715317
H       2.293404102325439      0.140885576605797      1.234976649284363
H       2.132149934768677      2.877027273178101      1.371139407157898
H       2.379165887832642     -0.931877076625824     -1.613290548324585
H      -4.470022678375244     -1.552689075469971      0.063261963427067
H      -5.444586277008057     -0.321939468383789      0.962174355983734
H      -1.715539693832397     -2.823834419250488     -0.313159555196762
H      -1.861516118049622     -2.211431026458740      1.229766607284546
H      -1.650636792182922     -0.859388947486877     -1.340604305267334
H       0.209445297718048     -0.233128443360329     -1.612911462783813
H      -2.688024282455444      2.634715318679810      0.313126176595688
H      -2.771548032760620      0.377022415399551      1.255733370780945
H      -1.042613267898560      2.175594329833984      0.305927008390427
H      -4.465085029602051      1.469924926757812     -0.156756341457367
H      -3.881054162979126      0.573928475379944     -1.510108828544617
H      -5.762018203735352     -0.699368298053741     -0.666455924510956
H      -2.003984928131104      1.987768769264221     -1.171999216079712
N      -2.137871742248535     -2.056685924530029      0.259201020002365
N       0.603796601295471     -0.459163665771484     -0.702603161334991
N       0.648931860923767      3.918627500534058      0.243189647793770
O       2.756935596466064     -2.752749204635620      0.797109544277191
O      -0.046664368361235     -0.575348377227783      1.454365730285645
O       1.151715040206909     -3.080918312072754     -0.739356219768524
