44
Energy: -692.271044443593 Ha
C       1.397513031959534      2.405215501785278      1.756951928138733
C      -1.102246522903442     -0.376398533582687     -1.298804521560669
C      -0.937532901763916     -1.894272565841675     -1.081125140190125
C       3.632391929626465      0.527024924755096     -0.966450333595276
C       1.674907565116882     -2.364555597305298      0.500502705574036
C       0.314455866813660     -1.844073414802551      1.081420421600342
C       2.424286365509033     -1.482864379882812     -0.617665946483612
C      -2.721600770950317     -0.673551082611084      0.417034775018692
C      -2.274282217025757      1.521044492721558     -0.578858554363251
C      -1.273630261421204      2.611516475677490     -0.953963577747345
C      -0.362693548202515      3.035891056060791      0.160113960504532
C      -2.104230880737305     -1.932250022888184      0.981519579887390
H       1.896084547042847      0.344609022140503      0.003225851804018
H       2.395163059234619     -2.506797313690186      1.320422053337097
H       1.493027687072754     -3.332536697387695      0.070564799010754
H       1.816107511520386     -1.377847075462341     -1.521562576293945
H       3.363811254501343     -1.929225325584412     -0.941281199455261
H       4.575092315673828     -0.090310730040073     -0.974212825298309
H      -0.150549352169037      0.185185372829437     -1.458964109420776
H       3.870692729949951      1.508440494537354     -0.537924349308014
H      -1.844049572944641     -2.378357887268066     -1.438363909721375
H      -0.127983316779137     -2.312746763229370     -1.692574024200439
H      -1.725246667861938     -0.247783988714218     -2.220649957656860
H       0.149822354316711     -2.207157611846924      2.087182521820068
H       3.284587144851685      0.682869613170624     -2.041676044464111
H       0.273133039474487     -0.764952480792999      1.118772745132446
H      -2.925446510314941      1.366784334182739     -1.421263337135315
H      -2.819171428680420     -2.754698038101196      0.826064288616180
H       2.061312437057495      3.215066909790039      1.393272399902344
H       2.036648750305176      1.636487841606140      2.201586723327637
H       0.776273190975189      2.751623392105103      2.589084148406982
H      -0.019112745299935      1.212309122085571      0.994219958782196
H      -1.966935038566589     -1.844601750373840      2.060539960861206
H      -0.934866845607758      3.388480901718140      1.023947477340698
H       0.290851712226868      3.856751918792725     -0.192376583814621
H      -1.840188980102539      3.474055767059326     -1.342845439910889
H      -2.947600364685059      1.832959532737732      0.253658205270767
H      -3.262984752655029     -0.119209364056587      1.164879083633423
H      -3.476605176925659     -0.994297683238983     -0.353897422552109
H      -0.638376593589783      2.275256872177124     -1.780291795730591
N      -0.864669382572174     -2.299204587936401      0.328241527080536
N       0.514685273170471      1.974163174629211      0.602218508720398
N      -1.750634551048279      0.209671244025230     -0.174292042851448
N       2.728116273880005     -0.179875582456589     -0.126680508255959
