45
Energy: -970.778218411392 Ha
C      -0.675679683685303     -1.310781717300415     -0.370747148990631
C       1.306851625442505      1.902021169662476      1.438958764076233
C       3.088964700698853      2.435408592224121     -0.259306877851486
C       2.431950569152832      1.317076325416565      0.583908617496490
C       3.164223670959473     -0.411486417055130     -1.082824945449829
C       1.936000466346741      0.120100751519203     -0.282485783100128
C       1.073542475700378      1.101106047630310      2.785842895507812
C      -3.180070400238037     -0.079444445669651      1.069802999496460
C      -2.813059329986572     -1.490260720252991      1.110188245773315
C      -2.017965078353882     -1.971453428268433     -0.127371996641159
C       0.318512797355652     -1.537526488304138      0.748478889465332
C      -3.179484128952026      1.462714791297913     -0.808339834213257
H       3.218088150024414      0.922780752182007      1.241054773330688
H       3.954138755798340      2.116795301437378     -0.820981323719025
H       3.391100406646729      3.217352628707886      0.439529418945312
H       2.397644519805908      2.868341922760010     -0.953629136085510
H       0.359954029321671      2.105631113052368      0.902806699275970
H       1.877574920654297      1.258425951004028      3.435350179672241
H       0.243891537189484      1.606373190879822      3.295064210891724
H       0.885335803031921      0.027268577367067      2.678060531616211
H       1.836960792541504     -1.271148562431335     -2.099878311157227
H       1.111942529678345      0.343083977699280     -0.995299875736237
H       1.661906719207764      2.910020351409912      1.730902075767517
H       2.277371883392334     -1.267486810684204      1.299888730049133
H      -1.612992286682129      2.638288259506226     -0.977126419544220
H      -3.648753643035889      2.809706687927246     -2.286243438720703
H       0.281452029943466     -2.718097925186157     -1.605185747146606
H      -0.684804677963257     -1.545783519744873     -2.335303068161011
H      -4.731570243835449      1.443471908569336     -2.203526020050049
H      -1.877169728279114     -3.087342023849487     -0.070362791419029
H      -2.579092025756836     -1.756041646003723     -1.019708991050720
H      -0.892264604568481     -0.240158736705780     -0.469275623559952
H      -3.704807758331299     -2.158334493637085      1.233390212059021
H      -3.808253526687622      0.202443510293961      1.892138123512268
H      -2.263160705566406      0.441846847534180      1.236513257026672
H      -4.766195774078369      0.363806575536728     -0.092016965150833
H      -2.233740329742432     -1.601592659950256      2.021050214767456
N      -0.015478032641113     -1.745789885520935     -1.579432964324951
N      -3.760027885437012      0.303976863622665     -0.217071831226349
N      -1.964067697525024      1.769628763198853     -0.553832113742828
N      -4.029277801513672      2.053721904754639     -1.716398239135742
N       1.576947808265686     -1.029858231544495      0.551429092884064
O       4.298493385314941     -0.139593437314034     -0.828935563564301
O       0.125195831060410     -2.213995456695557      1.740123867988586
O       2.817066192626953     -1.185942769050598     -2.124524593353271
