45
Energy: -916.5464446240851 Ha
C      -0.912870824337006      0.551928102970123     -0.217306554317474
C       3.757651329040527     -2.960766792297363      0.256844162940979
C       3.369998455047607     -1.679199457168579     -0.265421837568283
C       2.552088737487793     -0.759727180004120      0.636400818824768
C       1.466883182525635      2.851567268371582     -0.426668614149094
C       1.764613986015320      1.651093959808350      0.460106670856476
C       2.297646284103394      0.486014515161514     -0.292709529399872
C      -3.941042423248291     -1.533490896224976      0.495667636394501
C      -3.449982404708862     -0.053593695163727      0.559329748153687
C      -2.448749303817749      0.753216743469238     -0.247986257076263
C      -0.295003175735474      0.581289947032928      1.050362944602966
C      -4.796730995178223     -1.727156996726990     -0.827337920665741
H       1.684121608734131     -1.147324681282043      1.274247407913208
H       3.163471221923828      0.813277721405029     -0.840839922428131
H       1.528710961341858      0.224062308669090     -0.908261299133301
H       3.182151317596436     -0.274127364158630      1.376764416694641
H       4.390351772308350     -1.201324224472046     -0.367336690425873
H       2.076538324356079      3.896613359451294     -1.831239223480225
H       4.239358901977539     -2.882107734680176      1.192249298095703
H       2.830060243606567     -3.574288129806519      0.519294857978821
H       5.313286781311035     -2.951324224472046     -1.037187337875366
H       4.793221950531006     -4.499701976776123     -0.495837837457657
H       2.635579347610474      2.018347263336182      1.107700228691101
H       2.847916841506958     -1.774476647377014     -1.201708793640137
H       1.196441531181335      1.103021740913391      2.189432382583618
H      -4.249920368194580     -1.929652452468872     -1.725622773170471
H      -5.929864883422852      0.161111205816269     -0.557919621467590
H      -1.092170119285583     -0.996593892574310     -1.511820912361145
H       0.324208438396454     -0.902388691902161     -0.809668302536011
H      -6.578351020812988     -1.074552893638611     -1.464823126792908
H      -2.676798582077026      1.811251521110535      0.048126481473446
H      -2.697127103805542      0.733895778656006     -1.326597690582275
H      -0.486860334873199      1.414738774299622     -0.742430150508881
H      -4.421019554138184      0.500727176666260      0.481280714273453
H      -4.749585151672363     -1.622691631317139      1.260174393653870
H      -3.226375579833984     -2.255339145660400      0.744613289833069
H      -5.378787517547607     -2.666981697082520     -0.685045897960663
H      -3.218569993972778      0.070683427155018      1.720984697341919
N      -0.674188613891602     -0.806352019309998     -0.641306817531586
N      -5.895909786224365     -0.834798812866211     -0.822740256786346
N       0.771651864051819      1.406404256820679      1.367418646812439
N       4.466979980468750     -3.610747814178467     -0.853464365005493
O       0.507531344890594      3.559181928634644     -0.363241791725159
O      -0.800254464149475      0.069719880819321      2.009300470352173
O       2.496880531311035      3.240667343139648     -1.251754283905029
