45
Energy: -997.8455578730537 Ha
C       4.200839042663574     -0.173165217041969     -0.553358495235443
C       1.183835148811340     -1.101839900016785      1.946151137351990
C       0.825171113014221     -2.507364511489868      1.057419657707214
C       0.185237646102905     -2.084079504013062     -1.231607794761658
C      -3.301199674606323     -1.069906949996948     -0.757596671581268
C      -2.977040529251099     -0.618678569793701      0.726686120033264
C      -1.496138215065002     -2.318120956420898     -1.279163718223572
C      -2.120695114135742      2.493249654769897     -0.820651590824127
C       0.034043211489916      1.716140985488892     -0.348739892244339
C       1.514286875724792      2.322574853897095      0.189477756619453
C       3.482086658477783      1.241001009941101     -0.319444060325623
C      -2.752189636230469      1.779563426971436      0.425360530614853
H      -1.460116028785706     -3.075988054275513     -2.126200437545776
H      -3.681921958923340     -2.114197015762329     -0.826807677745819
H      -3.919668436050415     -0.410584241151810     -1.235818147659302
H      -1.773541927337646     -2.497586250305176     -0.298487871885300
H       0.580332279205322     -1.430293917655945     -1.897477388381958
H      -0.391022175550461     -0.060340601950884      2.206172943115234
H       1.715329170227051     -3.302345037460327      0.685644209384918
H      -0.119909673929214     -3.014512062072754      1.025497913360596
H       2.289277315139771     -1.055612802505493      2.946140527725220
H       1.291580557823181     -0.088591925799847      1.144868493080139
H      -4.011022567749023     -0.642563760280609      1.251077175140381
H       0.661171257495880     -3.126487493515015     -1.629050493240356
H      -2.336072206497192     -1.535391211509705      0.969490468502045
H      -1.915289282798767      1.778178930282593     -1.736517906188965
H      -3.960742712020874      1.768254756927490      0.319518327713013
H       2.185057163238525     -0.846584081649780     -0.525731801986694
H       4.667941570281982     -0.345281481742859      0.492941558361053
H      -2.714250564575195      2.519341945648193      1.362733721733093
H       3.414605140686035      1.631721258163452     -1.389521479606628
H       4.119058132171631      2.005691289901733      0.110600508749485
H       4.822544097900391      0.041560851037502     -1.386621117591858
H       2.115146875381470      3.245810747146606     -0.579645991325378
H      -0.763126909732819      1.060000777244568      0.495778501033783
H      -0.062010291963816      0.994873523712158     -1.623169302940369
H      -2.542861223220825      3.384943246841431     -1.156552553176880
H       1.036828041076660      3.191241264343262      1.468670248985291
O       0.794414579868317     -1.478999495506287      0.004502807278186
O       3.028657674789429     -0.960063934326172     -1.089925646781921
O       2.327573776245117      1.333367943763733      0.347291648387909
O      -0.715681076049805      2.997670650482178     -0.216349080204964
O      -2.389326095581055      0.562327206134796      0.823803246021271
O      -1.838441491127014     -0.947672486305237     -1.410836815834045
O      -0.196788877248764     -1.025567650794983      2.507172584533691
