45
Energy: -970.770894223873 Ha
C       1.723092913627625     -1.408910989761353     -0.446429252624512
C      -1.811864018440247      2.019799232482910      1.111805677413940
C      -2.898183107376099      1.060565590858459      1.645752191543579
C      -2.364083766937256     -0.366639047861099      1.840540170669556
C      -3.048868656158447     -0.999508202075958     -0.483861297369003
C      -1.942840695381165     -1.114100933074951      0.601180315017700
C      -0.187317848205566      2.252001523971558     -0.818640470504761
C       4.482295036315918      0.062192786484957      1.857708811759949
C       3.861974000930786     -0.478768795728683      0.571474015712738
C       2.324075460433960     -0.559060394763947      0.651915371417999
C       0.322543740272522     -1.890931725502014     -0.078330658376217
C       4.322017669677734      0.259329229593277     -0.656319260597229
H      -1.597019553184509     -0.385866403579712      2.619425535202026
H      -3.656950235366821      1.007053375244141      0.866613864898682
H      -3.309948205947876      1.521347165107727      2.541090726852417
H      -0.893705964088440      1.867832064628601      1.674761056900024
H      -2.144697666168213      3.069478750228882      1.254857778549194
H       0.988820791244507      2.191200256347656     -2.330118179321289
H       0.608857214450836      2.994711160659790      0.930784463882446
H       1.533676385879517      3.038309335708618     -0.524484515190125
H      -1.683493137359619     -0.259835153818130     -1.581463217735291
H      -3.183423280715942     -0.989560723304749      2.174780368804932
H      -2.125360965728760      1.680613636970520     -1.041353940963745
H      -1.862797141075134     -2.183650016784668      0.849638760089874
H       3.992291212081909     -0.291542410850525     -1.577126622200012
H       3.842312574386597      1.305347561836243     -0.713848173618317
H       1.412794113159180     -1.398433208465576     -2.496199131011963
H       1.089699268341064      0.074932686984539     -1.655145764350891
H      -0.205589458346367      0.105499424040318      0.132369145750999
H       2.084722042083740     -0.927673161029816      1.648632049560547
H       1.922633171081543      0.481625527143478      0.714764893054962
H       2.348211050033569     -2.305495738983154     -0.518280684947968
H       5.562025070190430     -0.208944633603096      1.955711722373962
H       3.934735059738159     -0.282958298921585      2.745890617370605
H       4.419447422027588      1.199715256690979      1.866080284118652
H       5.368374824523926      0.307633489370346     -0.751045227050781
H       4.253978252410889     -1.502029776573181      0.393180817365646
N       1.701597690582275     -0.736991226673126     -1.759340167045593
N      -0.576009333133698     -0.873796224594116      0.166871607303619
N      -1.402014613151550      1.833119630813599     -0.326283156871796
N       0.101536549627781      1.813601374626160     -2.028504133224487
N       0.631710588932037      3.043918132781982     -0.093747787177563
O      -4.175357341766357     -1.269510388374329     -0.252784788608551
O      -0.000286561436951     -3.043109655380249     -0.067015603184700
O      -2.648654222488403     -0.522890031337738     -1.639357805252075
