47
Energy: -822.7942616907259 Ha
C      -3.470768213272095     -0.134066238999367     -1.831068754196167
C       2.247105836868286     -2.381890535354614      0.811532735824585
C       3.011382341384888     -1.489374876022339     -0.156940579414368
C       2.986005306243896      0.552214145660400     -1.396683454513550
C       1.101444363594055      2.286031007766724     -1.299264669418335
C       0.368538886308670      2.471171855926514      0.952738344669342
C       2.605951786041260      2.026560783386230     -1.197376489639282
C      -0.516155660152435      0.691009044647217      2.495969772338867
C      -1.666096687316895     -0.269647568464279      2.114608049392700
C      -2.748894214630127     -1.404725551605225      0.239571526646614
C      -2.848955631256104     -1.437555074691772     -1.261585235595703
C      -0.775351464748383      2.117605447769165      1.987580299377441
H       3.075916528701782      2.290200233459473     -0.235356658697128
H      -0.670427799224854      1.607263445854187     -0.467818886041641
H       0.716437518596649      2.010153055191040     -2.291517019271851
H       0.936197340488434      3.418583869934082     -1.278022050857544
H       3.121671915054321      2.624381542205811     -1.967529773712158
H       4.053952693939209      0.498018890619278     -1.256650567054749
H       0.546679317951202     -2.685669660568237     -0.181727528572083
H       1.361267685890198     -0.329630911350250     -0.397115767002106
H       2.634445667266846     -2.151984930038452      1.760761499404907
H       2.583559513092041     -3.384159088134766      0.562169432640076
H       0.227698400616646     -2.532298803329468      1.370176434516907
H       0.381328523159027      3.539990901947021      0.747571408748627
H       2.828505039215088      0.216434285044670     -2.397212743759155
H       1.371466875076294      2.301612615585327      1.379582405090332
H       0.433854192495346      0.323229819536209      2.048882007598877
H      -1.760920882225037      2.221409320831299      1.521099805831909
H      -5.272784709930420     -0.881190717220306     -1.635144233703613
H      -5.364849090576172      0.717058300971985     -1.913466334342957
H      -3.383296489715576     -0.142583310604095     -2.949707508087158
H      -2.884835481643677      0.718030929565430     -1.433890223503113
H      -0.688159108161926      2.876413345336914      2.811186552047729
H      -3.384532213211060     -2.366949796676636     -1.511755943298340
H      -1.828305482864380     -1.545262217521667     -1.717032790184021
H      -2.590897321701050     -2.417566061019897      0.625145196914673
H      -0.847509860992432     -0.709531068801880      0.531950116157532
H      -1.384041428565979     -1.242537975311279      2.626036643981934
H      -2.632913589477539      0.081155285239220      2.571969985961914
H      -0.362972646951675      0.677368402481079      3.560926914215088
H      -3.698051691055298     -1.021350502967834      0.596618950366974
N       0.804703652858734     -2.155222654342651      0.622170507907867
N      -4.849459171295166      0.020672736689448     -1.392754793167114
N      -1.795239686965942     -0.392361521720886      0.665486991405487
N       0.305663585662842      1.667435765266418     -0.222351446747780
N       2.374877452850342     -0.325158834457397     -0.434919238090515
O       4.104057312011719     -1.822767615318298     -0.562255382537842
