47
Energy: -822.769135078583 Ha
C      -3.326210975646973     -0.259452521800995     -1.910858154296875
C       2.394246816635132     -2.261267185211182      1.007331967353821
C       3.044981718063354     -1.474048256874084     -0.175441995263100
C       3.028302431106567      0.724519848823547     -1.407625675201416
C       1.008366465568542      2.309509992599487     -1.280614852905273
C       0.108667768537998      2.657001018524170      0.949190258979797
C       2.547479391098022      2.110523462295532     -1.061318755149841
C      -0.672655403614044      0.680448353290558      2.501680135726929
C      -1.756832122802734     -0.365325450897217      2.088780879974365
C      -2.731298923492432     -1.438583135604858      0.141997426748276
C      -2.683188676834106     -1.460250020027161     -1.377108573913574
C      -0.900490641593933      2.142016649246216      1.978259682655334
H       2.828815698623657      2.384990453720093     -0.118999414145947
H      -0.619296908378601      1.373024225234985     -0.495739459991455
H       0.610460579395294      1.782919526100159     -2.175477504730225
H       0.769369244575500      3.389708995819092     -1.371240973472595
H       3.107767820358276      2.787824153900146     -1.728434562683105
H       4.098202228546143      0.436915963888168     -1.307826876640320
H       0.814805567264557     -3.055246114730835     -0.029192419722676
H       1.462900996208191     -0.135999649763107     -0.171153470873833
H       2.625135421752930     -1.664614915847778      1.943212866783142
H       2.936688184738159     -3.188066959381104      1.012379646301270
H       0.559907019138336     -2.901394605636597      1.552466511726379
H      -0.285911858081818      3.632833719253540      0.606157064437866
H       2.711616992950439      0.547790825366974     -2.524460315704346
H       1.088506340980530      2.779412984848022      1.485086083412170
H       0.356426894664764      0.443362295627594      2.129618406295776
H      -1.883205056190491      2.130111932754517      1.448443055152893
H      -5.298892974853516     -0.646320939064026     -2.117310523986816
H      -5.100755214691162      0.857677876949310     -1.295582413673401
H      -3.116590499877930     -0.346006572246552     -2.967697143554688
H      -2.826967239379883      0.593615531921387     -1.554949045181274
H      -0.890500247478485      2.884360313415527      2.801067590713501
H      -3.266395092010498     -2.332369804382324     -1.754420757293701
H      -1.688830494880676     -1.629415512084961     -1.702313661575317
H      -2.449471950531006     -2.405896186828613      0.595052421092987
H      -0.853476107120514     -0.785861253738403      0.392284989356995
H      -1.509253859519958     -1.366340517997742      2.480700969696045
H      -2.685281038284302     -0.184605792164803      2.704593420028687
H      -0.645891547203064      0.666224360466003      3.601153850555420
H      -3.754300594329834     -1.198553323745728      0.429036259651184
N       0.966299712657928     -2.412949562072754      0.768273115158081
N      -4.740365028381348     -0.166625931859016     -1.427937626838684
N      -1.828464269638062     -0.391608774662018      0.649383902549744
N       0.310385316610336      1.703234553337097     -0.175284937024117
N       2.321233749389648     -0.376294761896133     -0.643863141536713
O       4.166572570800781     -1.691365480422974     -0.598261117935181
